<?xml version="1.0" encoding="UTF-8"?>

<!-- generated on 02/14/20 21:13:44 by Eclipse SUMO duarouter Version 1.3.1
<configuration xmlns:xsi="http://www.w3.org/2001/XMLSchema-instance" xsi:noNamespaceSchemaLocation="http://sumo.dlr.de/xsd/duarouterConfiguration.xsd">

<input>
<net-file value="../maps/qatar_bus.net.xml"/>
<additional-files value="additional.xml"/>
<route-files value="route.routes.xml"/>
</input>

<output>
<output-file value="repaired.routes.xml"/>
<alternatives-output value="repaired.routes.alt.xml"/>
</output>

<processing>
<repair value="true"/>
<ptline-routing value="true"/>
</processing>

<time>
<end value="100"/>
</time>

<report>
<verbose value="true"/>
<ignore-errors value="true"/>
</report>

</configuration>
-->

<routes xmlns:xsi="http://www.w3.org/2001/XMLSchema-instance" xsi:noNamespaceSchemaLocation="http://sumo.dlr.de/xsd/routes_file.xsd">
  <vType id="bus" length="12.00" minGap="3.00" maxSpeed="70.00" vClass="bus" guiShape="bus" color="yellow" personCapacity="25" accel="2.6" decel="4.5" sigma="0"/>
  <!-- bus trips -->
  <flow id="110" type="bus" begin="100" end="7200" period="11000" color="yellow" line="110">
    <route edges="158194880#1 158194912 158195022 58974277 58974276#0 58974276#1 58974276#2 659833033 492229540#1 492229540#2 491706848 95475498#5 158426437#0 158426437#1 158426437#2 158748997 158748998#0 -235084921#1 -235084921#0 -235084920#1 235084923#0 685225992 188147840#5 188147840#6 188147840#7 158426437#2 158426437#3 158426437#4 158426437#5 158426437#6 158426437#7 158426437#0 95475538#0 95475538#1 95475538#2 154054008#0 154054008#1 162657808 188147868 188147860 188147849#0 188147849#1 188147849#2 111614727#0 111614727#1 158426573 158426195#0 158426195#1 158426210#0 158426210#1 165499564 162657796 188266548 188266552 158194834#0 158194834#1 158194834#2 158194834#3 158194834#4 158194834#5 160114050 160113713 160113701#0 160113701#1 160113701#2 160113701#3 160113701#4 131665143#9 131665144 160114121 160113720#0 160113720#1 160113720#2 -158194814#5 -158194814#4 -158194814#3 -158194814#2 -158194814#1 -158194814#0 -158194879#8 -158194879#7 -158194879#6 -158194879#5 158194879#5 -158194879#5 -158194879#4 -158194879#3 -158194879#2 -158194879#1 -158194879#0 158194868 160113987 158426734 25991598#0 25991598#1 25991598#2 162072481 188531101 188531095 162072482 158426507#0 158426507#1 160113769#0 160113769#1 160113769#2 25948293#0 25948293#1 25948293#2 492425109#0 492425109#1 492425109#2 492426170 163699996 187482447 188822636 187482402#0 187482402#1 187482402#2 95186908 106475733#0 106475733#1 106475733#2 160113901#0 479816301 163699970#3 133618455#0 154283671#1 154283671#2 154283671#3 154283671#4 154283671#5 154283671#6 154283671#7 -105617962#5 -105617962#4 -105617962#3 -105617962#2 -105617962#1 105617962#1 105617962#2 105617962#3 105617962#4 105617962#5 154283671#8 154283671#9 105617964#0 105617964#1 105617964#2 105617964#3 115628470#1 115628470#2 488494821#0 488494821#1 488494821#2 488494821#3 488494821#4 488494821#5 621342675#0 621342675#1 621342675#2 -480255700#20 -480255700#19 -480255700#18 -480255700#17 -480255700#16 -480255700#15 -480255700#14 -480255700#13 480237234#0 480237234#1 488494811#3 488494811#4 488494811#5 488349631#0 488349631#1 488349631#2 488349631#3 488349631#4 488349631#5 488349631#6 488349631#7 155988280#7 155988280#8 155988280#9 155988280#10 155988280#11 155988280#12 155988281#6 155988281#7 155988281#8 155988281#0 480255686#0 480255686#1 480255686#2 480255686#3 488494818#0 488494818#1 115628455#6 115628455#7 115628455#8 115628455#0 115628455#1 115628455#2 153940693#0 153940693#1 153940693#2 153940693#3 153940693#4 -153941746#5 153941746#5 153940693#5 95187236#14 95187236#15 95187236#16 95187236#17 635944737#0 635944737#1 176155596#19 176155596#20 176155596#21 176155596#22 488345109#0 488345109#1 488345109#2 488345109#3 488345109#4 479822480#0 479822480#1 479821358#1 479821358#2 620934244#0 620934244#1 620934244#2 -479817734#0 60893886#0 60893886#1 60893886#2 60893886#3 60893886#4 60893886#5 60893886#6 206489306 488345107#3 488345107#4 488345107#5 488345107#6 488345107#7 206082716#0 206082716#1 206082716#2 206082716#3 206082716#4 206082716#5 206082716#6 206082716#7 206082716#8 206082782#0 206082782#1 206082782#2 -211954205#3 -211954205#2 -211954205#1 -211954205#0 -60893786#5 -60893786#4 -60893786#3 -60893786#2 -206486631 -206490002 -206489305#8 -206489305#7 -206489305#6 -206489305#5 -206489305#4 -206489305#3 -206489305#2 -206489305#1 -206489305#0 -211934806#4 -211934806#3 -211934806#2 -211934806#1 -211934806#0 -183786037#2 -183786037#1 -183786037#0 480285106#13 480285106#14 480285106#15 479822479#0 479822479#1 479822479#2 479822481#0 479822481#1 479822481#2 479822481#3 488345108#0 488345108#1 488345108#2 488345108#3 488345108#4 488345108#5 488345905 176155596#11 176155596#12 176155596#13 176155596#14 488509914#0 488509914#1 635944737#1 176155596#19 488509911#2 635944744 488509922 488345108#4 488345108#5 488345108#6 488345108#7 488338981#1 488338981#2 488338981#3 111424625#1 111424625#2 153940692#0 153940692#1 153940692#2 153940692#3 115628455#2 115628455#3 115628455#4 115628450#0 115628450#1 115628450#2 115628450#3 155988281#2 155988281#3 155988281#4 488351083#0 488351083#1 488351083#2 488351083#3 488351083#4 -488349631#8 -488349631#7 -488349631#6 -488349631#5 -488349631#4 -488349631#3 -488349631#2 -488349631#1 -488349631#0 -26007194#1 -26007194#0 480255700#10 480255700#11 480255700#12 480255700#13 480255700#14 480255700#15 480255700#16 480255700#17 480255700#18 480255700#19 480255700#20 621342676#0 480255687 480255690#7 480255690#8 480255690#9 480255690#10 480255690#11 480255690#12 488494820#0 488494820#1 117318941#0 479816304#0 479816304#1 479816304#2 153940278#0 153940278#1 153940278#2 153940278#3 153940278#4 153940278#5 153940278#6 -163699973 -160113901#1 -160113901#0 -154283673#4 -154283673#3 -154283673#2 -154283673#1 -154283673#0 105617959#1 133958421#4 133958421#5 133958421#6 133958421#7 187482429 187490896 187490898 492430461 158426520#0 158426520#1 158426520#2 158426520#3 492425087#0 492425087#1 492425087#2 158194864#0 158194864#1 158194877#0 158194877#1 158194877#2 158194877#3 162072480 188531097 188531099 162072483 25991592#0 25991592#1 25991592#2 158194977#0 158194977#1 158194867 158194879#0 158194879#1 158194879#2 158194879#3 158194879#4 158194879#5 158194879#6 158194879#7 158194879#8 158194814#0 158194814#1 158194814#2 158194814#3 158194814#4 158194814#5 131665143#0 131665143#1 131665143#2 131665143#3 131665143#4 131665143#5 131665143#6 131665143#7 131665143#8 -160113701#4 -160113701#3 -160113701#2 -160113701#1 -160113701#0 139105791#0 139105791#1 139105791#2 162723716#0 162723716#1 755033427 162723718#0 162723718#1 162723718#2 162723718#3 162723718#4 162723718#5 162657795 188266551 188266550 158194824#0 158194824#1 158194824#2 491190428 115738581#2 115738581#3 115738581#4 115738581#5 115738581#6 158194824#6 158194824#7 162657797 95475501 188147852 188147853#0 188147853#1 165487301#0 165487301#1 480996742#1 622905043#0 -160113690#3 -160113690#2 -160113690#1 -160113690#0 -158194912 158194880#2"/>
    <stop busStop="600" duration="10.00" until="10.00"/>
    <stop busStop="604" duration="10.00" until="110.00"/>
    <stop busStop="602" duration="10.00" until="210.00"/>
    <stop busStop="1508" duration="10.00" until="310.00"/>
    <stop busStop="2610" duration="10.00" until="410.00"/>
    <stop busStop="2516" duration="10.00" until="510.00"/>
    <stop busStop="2532" duration="10.00" until="610.00"/>
    <stop busStop="2536" duration="10.00" until="710.00"/>
    <stop busStop="4140" duration="10.00" until="810.00"/>
    <stop busStop="4544" duration="10.00" until="910.00"/>
    <stop busStop="4548" duration="10.00" until="1010.00"/>
    <stop busStop="4552" duration="10.00" until="1110.00"/>
    <stop busStop="4556" duration="10.00" until="1210.00"/>
    <stop busStop="4560" duration="10.00" until="1310.00"/>
    <stop busStop="4564" duration="10.00" until="1410.00"/>
    <stop busStop="4572" duration="10.00" until="1510.00"/>
    <stop busStop="4576" duration="10.00" until="1610.00"/>
    <stop busStop="4580" duration="10.00" until="1710.00"/>
    <stop busStop="4584" duration="10.00" until="1810.00"/>
    <stop busStop="4588" duration="10.00" until="1910.00"/>
    <stop busStop="4700" duration="10.00" until="2010.00"/>
    <stop busStop="4704" duration="10.00" until="2110.00"/>
    <stop busStop="4722" duration="10.00" until="2210.00"/>
    <stop busStop="4730" duration="10.00" until="2310.00"/>
    <stop busStop="4734" duration="10.00" until="2410.00"/>
    <stop busStop="4738" duration="10.00" until="2510.00"/>
    <stop busStop="4742" duration="10.00" until="2610.00"/>
    <stop busStop="4746" duration="10.00" until="2710.00"/>
    <stop busStop="4750" duration="10.00" until="2810.00"/>
    <stop busStop="4754" duration="10.00" until="2910.00"/>
    <stop busStop="4701" duration="10.00" until="3010.00"/>
    <stop busStop="46669" duration="10.00" until="3110.00"/>
    <stop busStop="44467" duration="10.00" until="3210.00"/>
    <stop busStop="4589" duration="10.00" until="3310.00"/>
    <stop busStop="4585" duration="10.00" until="3410.00"/>
    <stop busStop="4581" duration="10.00" until="3510.00"/>
    <stop busStop="4577" duration="10.00" until="3610.00"/>
    <stop busStop="4573" duration="10.00" until="3710.00"/>
    <stop busStop="4565" duration="10.00" until="3810.00"/>
    <stop busStop="4561" duration="10.00" until="3910.00"/>
    <stop busStop="4557" duration="10.00" until="4010.00"/>
    <stop busStop="4553" duration="10.00" until="4110.00"/>
    <stop busStop="4549" duration="10.00" until="4210.00"/>
    <stop busStop="4545" duration="10.00" until="4310.00"/>
    <stop busStop="4241" duration="10.00" until="4410.00"/>
    <stop busStop="2637" duration="10.00" until="4510.00"/>
    <stop busStop="2633" duration="10.00" until="4610.00"/>
    <stop busStop="2617" duration="10.00" until="4710.00"/>
    <stop busStop="2711" duration="10.00" until="4810.00"/>
    <stop busStop="1609" duration="10.00" until="4910.00"/>
    <stop busStop="601" duration="10.00" until="5010.00"/>
    <stop busStop="999" duration="10.00" until="5110.00"/>
  </flow>

  <person id="person_110.0" depart="0" departPos="150">
    <ride  from="158194880#1" to="158194880#2" lines="110" />
  </person>
  <person id="person_110.1" depart="0" departPos = "150">
    <ride  from="158194880#1" to="158194880#2" lines="110" />
  </person>
  <person id="person_110.2" depart="0" departPos= "150">
    <ride  from="158194880#1" to="158194880#2" lines="110" />
  </person>
  <person id="person_110.3" depart="0" departPos  = "150">
    <ride  from="158194880#1" to="158194880#2" lines="110" />
  </person>

</routes>
