<?xml version="1.0" encoding="UTF-8"?>
<!-- generated on 2020-01-24 18:25:31.120000 by $Id$
  options: <doubleminus>persontrips <doubleminus>trip-attributes modes="public" -n shape_110.net.xml -r routes.routes.xml -a additional.xml
-->
<routes xmlns:xsi="http://www.w3.org/2001/XMLSchema-instance" xsi:noNamespaceSchemaLocation="http://sumo.dlr.de/xsd/routes_file.xsd">
    <person id="0" depart="0.00">
        <personTrip from="309758691#2" to="-26007280#3" modes="public"/>
    </person>
    <person id="1" depart="1.00">
        <personTrip from="623179789" to="486820788#0" modes="public"/>
    </person>
    <person id="2" depart="2.00">
        <personTrip from="479813170#1" to="-485000443#0" modes="public"/>
    </person>
    <person id="3" depart="3.00">
        <personTrip from="211968858#0" to="-153977737#2" modes="public"/>
    </person>
    <person id="4" depart="4.00">
        <personTrip from="-25938255#1" to="162179024#2" modes="public"/>
    </person>
    <person id="5" depart="5.00">
        <personTrip from="322569119#1" to="658249693" modes="public"/>
    </person>
    <person id="6" depart="6.00">
        <personTrip from="158426642#0" to="-153232578" modes="public"/>
    </person>
    <person id="7" depart="7.00">
        <personTrip from="160113746#3" to="-26009141#5" modes="public"/>
    </person>
    <person id="8" depart="8.00">
        <personTrip from="-111424615#7" to="-659814181#1" modes="public"/>
    </person>
    <person id="9" depart="9.00">
        <personTrip from="492402220" to="25938184#0" modes="public"/>
    </person>
    <person id="10" depart="10.00">
        <personTrip from="-25982416#0" to="621330311#2" modes="public"/>
    </person>
    <person id="11" depart="11.00">
        <personTrip from="623940339#4" to="95186818#5" modes="public"/>
    </person>
    <person id="12" depart="12.00">
        <personTrip from="-658173870" to="149997813#1" modes="public"/>
    </person>
    <person id="13" depart="13.00">
        <personTrip from="623196765#0" to="-479598714#2" modes="public"/>
    </person>
    <person id="14" depart="14.00">
        <personTrip from="163696516#4" to="-475896419" modes="public"/>
    </person>
    <person id="15" depart="15.00">
        <personTrip from="26007277#0" to="-659811014#1" modes="public"/>
    </person>
    <person id="16" depart="16.00">
        <personTrip from="-479814200#0" to="206082716#2" modes="public"/>
    </person>
    <person id="17" depart="17.00">
        <personTrip from="161543346#1" to="-658332107" modes="public"/>
    </person>
    <person id="18" depart="18.00">
        <personTrip from="483074546#1" to="620980982#0" modes="public"/>
    </person>
    <person id="19" depart="19.00">
        <personTrip from="747842147" to="-157075893#3" modes="public"/>
    </person>
    <person id="20" depart="20.00">
        <personTrip from="-235085060#1" to="-234388983#0" modes="public"/>
    </person>
    <person id="21" depart="21.00">
        <personTrip from="491405553#0" to="183786046#2" modes="public"/>
    </person>
    <person id="22" depart="22.00">
        <personTrip from="-234388983#6" to="115628445" modes="public"/>
    </person>
    <person id="23" depart="23.00">
        <personTrip from="-160114064#3" to="26009009#3" modes="public"/>
    </person>
    <person id="24" depart="24.00">
        <personTrip from="323441933" to="-234388984#4" modes="public"/>
    </person>
    <person id="25" depart="25.00">
        <personTrip from="-658627447#0" to="-196181056#5" modes="public"/>
    </person>
    <person id="26" depart="26.00">
        <personTrip from="480335667#0" to="-25991700#3" modes="public"/>
    </person>
    <person id="27" depart="27.00">
        <personTrip from="160113798#0" to="219738631#1" modes="public"/>
    </person>
    <person id="28" depart="28.00">
        <personTrip from="26007029" to="-206488410#3" modes="public"/>
    </person>
    <person id="29" depart="29.00">
        <personTrip from="-153977731#1" to="183786063" modes="public"/>
    </person>
    <person id="30" depart="30.00">
        <personTrip from="-115747305#4" to="-26006820#2" modes="public"/>
    </person>
    <person id="31" depart="31.00">
        <personTrip from="111614822" to="-322569107#1" modes="public"/>
    </person>
    <person id="32" depart="32.00">
        <personTrip from="153940276#0" to="-139256315#3" modes="public"/>
    </person>
    <person id="33" depart="33.00">
        <personTrip from="157075891#1" to="206082716#5" modes="public"/>
    </person>
    <person id="34" depart="34.00">
        <personTrip from="25991815#8" to="475896387#1" modes="public"/>
    </person>
    <person id="35" depart="35.00">
        <personTrip from="206488406" to="158426339#0" modes="public"/>
    </person>
    <person id="36" depart="36.00">
        <personTrip from="-26002795#2" to="-149937067" modes="public"/>
    </person>
    <person id="37" depart="37.00">
        <personTrip from="-486612552#1" to="211935834#1" modes="public"/>
    </person>
    <person id="38" depart="38.00">
        <personTrip from="-25991637#10" to="-165499604#5" modes="public"/>
    </person>
    <person id="39" depart="39.00">
        <personTrip from="323437956#0" to="-475172114#0" modes="public"/>
    </person>
    <person id="40" depart="40.00">
        <personTrip from="-153940283#0" to="-658253312#0" modes="public"/>
    </person>
    <person id="41" depart="41.00">
        <personTrip from="220597239#0" to="158426121" modes="public"/>
    </person>
    <person id="42" depart="42.00">
        <personTrip from="524110891#2" to="256634808#0" modes="public"/>
    </person>
    <person id="43" depart="43.00">
        <personTrip from="-474929517#0" to="95475533#1" modes="public"/>
    </person>
    <person id="44" depart="44.00">
        <personTrip from="-26009252#1" to="206489444#4" modes="public"/>
    </person>
    <person id="45" depart="45.00">
        <personTrip from="206486628#3" to="107060560#2" modes="public"/>
    </person>
    <person id="46" depart="46.00">
        <personTrip from="483103981" to="165499575#3" modes="public"/>
    </person>
    <person id="47" depart="47.00">
        <personTrip from="658176980" to="206082782#1" modes="public"/>
    </person>
    <person id="48" depart="48.00">
        <personTrip from="-479598686#1" to="220088197#0" modes="public"/>
    </person>
    <person id="49" depart="49.00">
        <personTrip from="480231851#1" to="220599852#1" modes="public"/>
    </person>
    <person id="50" depart="50.00">
        <personTrip from="583332876#3" to="-26002709#0" modes="public"/>
    </person>
    <person id="51" depart="51.00">
        <personTrip from="-479819939#0" to="365935239#4" modes="public"/>
    </person>
    <person id="52" depart="52.00">
        <personTrip from="153226874" to="479808600#2" modes="public"/>
    </person>
    <person id="53" depart="53.00">
        <personTrip from="322816881#2" to="-658049097#0" modes="public"/>
    </person>
    <person id="54" depart="54.00">
        <personTrip from="26007307#0" to="-160113957#1" modes="public"/>
    </person>
    <person id="55" depart="55.00">
        <personTrip from="-26003928#3" to="154043521#1" modes="public"/>
    </person>
    <person id="56" depart="56.00">
        <personTrip from="26002502#1" to="-487493355" modes="public"/>
    </person>
    <person id="57" depart="57.00">
        <personTrip from="25991641#1" to="754991705#6" modes="public"/>
    </person>
    <person id="58" depart="58.00">
        <personTrip from="-479804669" to="-26007132#3" modes="public"/>
    </person>
    <person id="59" depart="59.00">
        <personTrip from="479822131" to="323438012#1" modes="public"/>
    </person>
    <person id="60" depart="60.00">
        <personTrip from="479816427" to="-480237246#1" modes="public"/>
    </person>
    <person id="61" depart="61.00">
        <personTrip from="43684050#12" to="60893786#4" modes="public"/>
    </person>
    <person id="62" depart="62.00">
        <personTrip from="153192100#2" to="-108028530#2" modes="public"/>
    </person>
    <person id="63" depart="63.00">
        <personTrip from="479747970" to="474924920#0" modes="public"/>
    </person>
    <person id="64" depart="64.00">
        <personTrip from="165287975#0" to="110860260#6" modes="public"/>
    </person>
    <person id="65" depart="65.00">
        <personTrip from="103981483#1" to="480607498#0" modes="public"/>
    </person>
    <person id="66" depart="66.00">
        <personTrip from="486634276" to="-206489444#2" modes="public"/>
    </person>
    <person id="67" depart="67.00">
        <personTrip from="491654188#0" to="-659837068" modes="public"/>
    </person>
    <person id="68" depart="68.00">
        <personTrip from="479817725#0" to="-115628501" modes="public"/>
    </person>
    <person id="69" depart="69.00">
        <personTrip from="488505722#1" to="-25991741#1" modes="public"/>
    </person>
    <person id="70" depart="70.00">
        <personTrip from="-620980982#0" to="-620982031" modes="public"/>
    </person>
    <person id="71" depart="71.00">
        <personTrip from="-26007291#4" to="-485024710#8" modes="public"/>
    </person>
    <person id="72" depart="72.00">
        <personTrip from="-658337711#5" to="-488561165#2" modes="public"/>
    </person>
    <person id="73" depart="73.00">
        <personTrip from="479761716#3" to="487493364" modes="public"/>
    </person>
    <person id="74" depart="74.00">
        <personTrip from="475112466#0" to="111614805#0" modes="public"/>
    </person>
    <person id="75" depart="75.00">
        <personTrip from="-474924896#1" to="-623196747" modes="public"/>
    </person>
    <person id="76" depart="76.00">
        <personTrip from="-475170254" to="479819931#3" modes="public"/>
    </person>
    <person id="77" depart="77.00">
        <personTrip from="26003885#1" to="-153192100#1" modes="public"/>
    </person>
    <person id="78" depart="78.00">
        <personTrip from="107579644#1" to="-480237218" modes="public"/>
    </person>
    <person id="79" depart="79.00">
        <personTrip from="26006824#2" to="479761734" modes="public"/>
    </person>
    <person id="80" depart="80.00">
        <personTrip from="26003944#3" to="206082494#0" modes="public"/>
    </person>
    <person id="81" depart="81.00">
        <personTrip from="-137664790#1" to="449879329#5" modes="public"/>
    </person>
    <person id="82" depart="82.00">
        <personTrip from="158194879#5" to="211935772#0" modes="public"/>
    </person>
    <person id="83" depart="83.00">
        <personTrip from="158426740#2" to="-479761722#1" modes="public"/>
    </person>
    <person id="84" depart="84.00">
        <personTrip from="165487319#1" to="26002899" modes="public"/>
    </person>
    <person id="85" depart="85.00">
        <personTrip from="135416305#13" to="-207634807#1" modes="public"/>
    </person>
    <person id="86" depart="86.00">
        <personTrip from="153940270#2" to="524110892#3" modes="public"/>
    </person>
    <person id="87" depart="87.00">
        <personTrip from="-729356503#7" to="-160113945" modes="public"/>
    </person>
    <person id="88" depart="88.00">
        <personTrip from="-322817125#0" to="396214372#2" modes="public"/>
    </person>
    <person id="89" depart="89.00">
        <personTrip from="-486666562#0" to="153924046#0" modes="public"/>
    </person>
    <person id="90" depart="90.00">
        <personTrip from="26006766#0" to="153192065#2" modes="public"/>
    </person>
    <person id="91" depart="91.00">
        <personTrip from="489615819#1" to="621549826#0" modes="public"/>
    </person>
    <person id="92" depart="92.00">
        <personTrip from="479821360" to="487493365" modes="public"/>
    </person>
    <person id="93" depart="93.00">
        <personTrip from="26007028#2" to="-26003822" modes="public"/>
    </person>
    <person id="94" depart="94.00">
        <personTrip from="623196726" to="-479761734" modes="public"/>
    </person>
    <person id="95" depart="95.00">
        <personTrip from="-685248676" to="-488494811#1" modes="public"/>
    </person>
    <person id="96" depart="96.00">
        <personTrip from="-26002433#13" to="139256315#3" modes="public"/>
    </person>
    <person id="97" depart="97.00">
        <personTrip from="-165483424" to="488509917#1" modes="public"/>
    </person>
    <person id="98" depart="98.00">
        <personTrip from="165494947#7" to="-153192003#1" modes="public"/>
    </person>
    <person id="99" depart="99.00">
        <personTrip from="729356497#0" to="754416059#1" modes="public"/>
    </person>
    <person id="100" depart="100.00">
        <personTrip from="480285106#15" to="754370232#2" modes="public"/>
    </person>
    <person id="101" depart="101.00">
        <personTrip from="-206079523#3" to="-103981483#0" modes="public"/>
    </person>
    <person id="102" depart="102.00">
        <personTrip from="-480255694#0" to="-475112466#7" modes="public"/>
    </person>
    <person id="103" depart="103.00">
        <personTrip from="256634794" to="479816447" modes="public"/>
    </person>
    <person id="104" depart="104.00">
        <personTrip from="-479817734#0" to="188272179#4" modes="public"/>
    </person>
    <person id="105" depart="105.00">
        <personTrip from="323441909#2" to="206082555" modes="public"/>
    </person>
    <person id="106" depart="106.00">
        <personTrip from="-153940229#3" to="-26007380#2" modes="public"/>
    </person>
    <person id="107" depart="107.00">
        <personTrip from="491433245#0" to="-480272827#0" modes="public"/>
    </person>
    <person id="108" depart="108.00">
        <personTrip from="119157740" to="-26003805#2" modes="public"/>
    </person>
    <person id="109" depart="109.00">
        <personTrip from="-60893793#0" to="323437956#3" modes="public"/>
    </person>
    <person id="110" depart="110.00">
        <personTrip from="488534158" to="-474924779" modes="public"/>
    </person>
    <person id="111" depart="111.00">
        <personTrip from="-235084926#1" to="-26003817#2" modes="public"/>
    </person>
    <person id="112" depart="112.00">
        <personTrip from="223152208" to="206488403#4" modes="public"/>
    </person>
    <person id="113" depart="113.00">
        <personTrip from="156617154#7" to="153226867#2" modes="public"/>
    </person>
    <person id="114" depart="114.00">
        <personTrip from="-306438460" to="524110892#2" modes="public"/>
    </person>
    <person id="115" depart="115.00">
        <personTrip from="234388560#1" to="163696737" modes="public"/>
    </person>
    <person id="116" depart="116.00">
        <personTrip from="475896403#1" to="658317636" modes="public"/>
    </person>
    <person id="117" depart="117.00">
        <personTrip from="407222197" to="-488561165#5" modes="public"/>
    </person>
    <person id="118" depart="118.00">
        <personTrip from="-25938237#6" to="158195063" modes="public"/>
    </person>
    <person id="119" depart="119.00">
        <personTrip from="-196181049#1" to="485000451" modes="public"/>
    </person>
    <person id="120" depart="120.00">
        <personTrip from="153226890#2" to="206489444#4" modes="public"/>
    </person>
    <person id="121" depart="121.00">
        <personTrip from="165287962#0" to="492425087#0" modes="public"/>
    </person>
    <person id="122" depart="122.00">
        <personTrip from="-491449152#1" to="322569136#2" modes="public"/>
    </person>
    <person id="123" depart="123.00">
        <personTrip from="26002765#0" to="-480255700#8" modes="public"/>
    </person>
    <person id="124" depart="124.00">
        <personTrip from="-474924933#0" to="111614732#2" modes="public"/>
    </person>
    <person id="125" depart="125.00">
        <personTrip from="-479821354" to="-153940271#3" modes="public"/>
    </person>
    <person id="126" depart="126.00">
        <personTrip from="-25982296#0" to="488561167#0" modes="public"/>
    </person>
    <person id="127" depart="127.00">
        <personTrip from="165499575#7" to="-479822117" modes="public"/>
    </person>
    <person id="128" depart="128.00">
        <personTrip from="-111614700#1" to="153991081#0" modes="public"/>
    </person>
    <person id="129" depart="129.00">
        <personTrip from="-207636718#1" to="361644082" modes="public"/>
    </person>
    <person id="130" depart="130.00">
        <personTrip from="491649455#3" to="153941688#0" modes="public"/>
    </person>
    <person id="131" depart="131.00">
        <personTrip from="255111351#0" to="485361450" modes="public"/>
    </person>
    <person id="132" depart="132.00">
        <personTrip from="220088196#0" to="250878781" modes="public"/>
    </person>
    <person id="133" depart="133.00">
        <personTrip from="-480301390#0" to="-658354705" modes="public"/>
    </person>
    <person id="134" depart="134.00">
        <personTrip from="658330843" to="185567778" modes="public"/>
    </person>
    <person id="135" depart="135.00">
        <personTrip from="492211154#0" to="489917843#0" modes="public"/>
    </person>
    <person id="136" depart="136.00">
        <personTrip from="-26003886#2" to="188147855#2" modes="public"/>
    </person>
    <person id="137" depart="137.00">
        <personTrip from="107349008" to="-26007194#1" modes="public"/>
    </person>
    <person id="138" depart="138.00">
        <personTrip from="658643143#2" to="166518865#1" modes="public"/>
    </person>
    <person id="139" depart="139.00">
        <personTrip from="620959394#0" to="-206488409#2" modes="public"/>
    </person>
    <person id="140" depart="140.00">
        <personTrip from="-154289127#0" to="25948306#3" modes="public"/>
    </person>
    <person id="141" depart="141.00">
        <personTrip from="635944737#1" to="488349631#8" modes="public"/>
    </person>
    <person id="142" depart="142.00">
        <personTrip from="157076220#2" to="-479761717#0" modes="public"/>
    </person>
    <person id="143" depart="143.00">
        <personTrip from="-190323552" to="25991787#4" modes="public"/>
    </person>
    <person id="144" depart="144.00">
        <personTrip from="583332881#1" to="-153940246" modes="public"/>
    </person>
    <person id="145" depart="145.00">
        <personTrip from="60893886#1" to="158194857#2" modes="public"/>
    </person>
    <person id="146" depart="146.00">
        <personTrip from="-480300585#1" to="479747968#2" modes="public"/>
    </person>
    <person id="147" depart="147.00">
        <personTrip from="158194880#0" to="25952855#2" modes="public"/>
    </person>
    <person id="148" depart="148.00">
        <personTrip from="206487926#4" to="479816312" modes="public"/>
    </person>
    <person id="149" depart="149.00">
        <personTrip from="135416305#1" to="165720254" modes="public"/>
    </person>
    <person id="150" depart="150.00">
        <personTrip from="480272831" to="-157075893#0" modes="public"/>
    </person>
    <person id="151" depart="151.00">
        <personTrip from="-658355584#1" to="622912974" modes="public"/>
    </person>
    <person id="152" depart="152.00">
        <personTrip from="-206079415#0" to="188272191#6" modes="public"/>
    </person>
    <person id="153" depart="153.00">
        <personTrip from="157089045#0" to="-475904387#0" modes="public"/>
    </person>
    <person id="154" depart="154.00">
        <personTrip from="475896407#0" to="26003805#0" modes="public"/>
    </person>
    <person id="155" depart="155.00">
        <personTrip from="105701734#3" to="155170578#1" modes="public"/>
    </person>
    <person id="156" depart="156.00">
        <personTrip from="322569137#1" to="619582001" modes="public"/>
    </person>
    <person id="157" depart="157.00">
        <personTrip from="-157076220#0" to="-479822120#8" modes="public"/>
    </person>
    <person id="158" depart="158.00">
        <personTrip from="131763014#0" to="95475500#13" modes="public"/>
    </person>
    <person id="159" depart="159.00">
        <personTrip from="606074818#0" to="-481002333#0" modes="public"/>
    </person>
    <person id="160" depart="160.00">
        <personTrip from="-659814181#1" to="-112681469#2" modes="public"/>
    </person>
    <person id="161" depart="161.00">
        <personTrip from="475170258" to="475896382#0" modes="public"/>
    </person>
    <person id="162" depart="162.00">
        <personTrip from="696514239" to="26009235#5" modes="public"/>
    </person>
    <person id="163" depart="163.00">
        <personTrip from="-487493374#1" to="-183786046#2" modes="public"/>
    </person>
    <person id="164" depart="164.00">
        <personTrip from="-489622243#0" to="187490897" modes="public"/>
    </person>
    <person id="165" depart="165.00">
        <personTrip from="-250878652#2" to="491654172#1" modes="public"/>
    </person>
    <person id="166" depart="166.00">
        <personTrip from="309758645#1" to="-26007215#7" modes="public"/>
    </person>
    <person id="167" depart="167.00">
        <personTrip from="131665143#9" to="-658361968" modes="public"/>
    </person>
    <person id="168" depart="168.00">
        <personTrip from="306438523#2" to="154027203#1" modes="public"/>
    </person>
    <person id="169" depart="169.00">
        <personTrip from="-479598714#4" to="110860260#5" modes="public"/>
    </person>
    <person id="170" depart="170.00">
        <personTrip from="658351483" to="623956302" modes="public"/>
    </person>
    <person id="171" depart="171.00">
        <personTrip from="26009017#2" to="491650198" modes="public"/>
    </person>
    <person id="172" depart="172.00">
        <personTrip from="160113720#1" to="-115389925#0" modes="public"/>
    </person>
    <person id="173" depart="173.00">
        <personTrip from="207634807#2" to="26003774" modes="public"/>
    </person>
    <person id="174" depart="174.00">
        <personTrip from="111424615#6" to="234388563#0" modes="public"/>
    </person>
    <person id="175" depart="175.00">
        <personTrip from="112681471#0" to="26007063#4" modes="public"/>
    </person>
    <person id="176" depart="176.00">
        <personTrip from="658351477" to="26002785#2" modes="public"/>
    </person>
    <person id="177" depart="177.00">
        <personTrip from="165309584#3" to="-26007012#0" modes="public"/>
    </person>
    <person id="178" depart="178.00">
        <personTrip from="26009236#5" to="-26002785#4" modes="public"/>
    </person>
    <person id="179" depart="179.00">
        <personTrip from="488538386" to="-158194879#4" modes="public"/>
    </person>
    <person id="180" depart="180.00">
        <personTrip from="95475526" to="158194972#1" modes="public"/>
    </person>
    <person id="181" depart="181.00">
        <personTrip from="183786057#0" to="480255700#15" modes="public"/>
    </person>
    <person id="182" depart="182.00">
        <personTrip from="-475904395#2" to="153192083" modes="public"/>
    </person>
    <person id="183" depart="183.00">
        <personTrip from="-620980981" to="153940237" modes="public"/>
    </person>
    <person id="184" depart="184.00">
        <personTrip from="-480301387" to="-26009001#3" modes="public"/>
    </person>
    <person id="185" depart="185.00">
        <personTrip from="206479997#0" to="485024710#10" modes="public"/>
    </person>
    <person id="186" depart="186.00">
        <personTrip from="-206488401#1" to="623940335" modes="public"/>
    </person>
    <person id="187" depart="187.00">
        <personTrip from="-474924927#1" to="111808011#0" modes="public"/>
    </person>
    <person id="188" depart="188.00">
        <personTrip from="246114177" to="-479814202#1" modes="public"/>
    </person>
    <person id="189" depart="189.00">
        <personTrip from="190323567#0" to="-206487207#1" modes="public"/>
    </person>
    <person id="190" depart="190.00">
        <personTrip from="498268392" to="491649455#4" modes="public"/>
    </person>
    <person id="191" depart="191.00">
        <personTrip from="26002676#4" to="111808019#1" modes="public"/>
    </person>
    <person id="192" depart="192.00">
        <personTrip from="361649081#1" to="-26003889#6" modes="public"/>
    </person>
    <person id="193" depart="193.00">
        <personTrip from="479814220#1" to="480300585#0" modes="public"/>
    </person>
    <person id="194" depart="194.00">
        <personTrip from="754991699" to="-26007219#0" modes="public"/>
    </person>
    <person id="195" depart="195.00">
        <personTrip from="-190323553" to="479804685#1" modes="public"/>
    </person>
    <person id="196" depart="196.00">
        <personTrip from="-475172063#2" to="-474924832#0" modes="public"/>
    </person>
    <person id="197" depart="197.00">
        <personTrip from="-154054036#2" to="474929515" modes="public"/>
    </person>
    <person id="198" depart="198.00">
        <personTrip from="-306438631" to="491433247" modes="public"/>
    </person>
    <person id="199" depart="199.00">
        <personTrip from="166518865#1" to="206489993#0" modes="public"/>
    </person>
    <person id="200" depart="200.00">
        <personTrip from="153941704#0" to="-165483425#0" modes="public"/>
    </person>
    <person id="201" depart="201.00">
        <personTrip from="-25991693#1" to="-26002749#3" modes="public"/>
    </person>
    <person id="202" depart="202.00">
        <personTrip from="-207636508#1" to="211935832#2" modes="public"/>
    </person>
    <person id="203" depart="203.00">
        <personTrip from="-480237239#2" to="26009031#0" modes="public"/>
    </person>
    <person id="204" depart="204.00">
        <personTrip from="26007063#2" to="155988289#8" modes="public"/>
    </person>
    <person id="205" depart="205.00">
        <personTrip from="26007047#3" to="188147849#0" modes="public"/>
    </person>
    <person id="206" depart="206.00">
        <personTrip from="-206488410#0" to="729356488#1" modes="public"/>
    </person>
    <person id="207" depart="207.00">
        <personTrip from="103931309#2" to="149997815#2" modes="public"/>
    </person>
    <person id="208" depart="208.00">
        <personTrip from="206082782#1" to="196181061#5" modes="public"/>
    </person>
    <person id="209" depart="209.00">
        <personTrip from="105589442#1" to="106547503#3" modes="public"/>
    </person>
    <person id="210" depart="210.00">
        <personTrip from="622912972" to="-485024710#7" modes="public"/>
    </person>
    <person id="211" depart="211.00">
        <personTrip from="658161680" to="-25991709#1" modes="public"/>
    </person>
    <person id="212" depart="212.00">
        <personTrip from="160114076#1" to="488343779#0" modes="public"/>
    </person>
    <person id="213" depart="213.00">
        <personTrip from="-111424615#7" to="157075893#3" modes="public"/>
    </person>
    <person id="214" depart="214.00">
        <personTrip from="196178892#0" to="475172132#8" modes="public"/>
    </person>
    <person id="215" depart="215.00">
        <personTrip from="754370223" to="95475528#6" modes="public"/>
    </person>
    <person id="216" depart="216.00">
        <personTrip from="-474924868#0" to="153941707" modes="public"/>
    </person>
    <person id="217" depart="217.00">
        <personTrip from="658250288" to="489949637" modes="public"/>
    </person>
    <person id="218" depart="218.00">
        <personTrip from="190323548#3" to="479761722#0" modes="public"/>
    </person>
    <person id="219" depart="219.00">
        <personTrip from="149997815#6" to="488351083#9" modes="public"/>
    </person>
    <person id="220" depart="220.00">
        <personTrip from="488509917#2" to="479808600#2" modes="public"/>
    </person>
    <person id="221" depart="221.00">
        <personTrip from="115628470#2" to="154028476#2" modes="public"/>
    </person>
    <person id="222" depart="222.00">
        <personTrip from="524110892#3" to="153988427#2" modes="public"/>
    </person>
    <person id="223" depart="223.00">
        <personTrip from="-235084925#0" to="474924842#6" modes="public"/>
    </person>
    <person id="224" depart="224.00">
        <personTrip from="322569124#1" to="620954339" modes="public"/>
    </person>
    <person id="225" depart="225.00">
        <personTrip from="-162074416" to="-25921058#3" modes="public"/>
    </person>
    <person id="226" depart="226.00">
        <personTrip from="623943243" to="-475896420" modes="public"/>
    </person>
    <person id="227" depart="227.00">
        <personTrip from="-658355584#2" to="95475505#0" modes="public"/>
    </person>
    <person id="228" depart="228.00">
        <personTrip from="-153941721#0" to="-25948159#0" modes="public"/>
    </person>
    <person id="229" depart="229.00">
        <personTrip from="155991124#1" to="-206488913#1" modes="public"/>
    </person>
    <person id="230" depart="230.00">
        <personTrip from="106100587#2" to="153989030#0" modes="public"/>
    </person>
    <person id="231" depart="231.00">
        <personTrip from="-154043521#3" to="-153922130#5" modes="public"/>
    </person>
    <person id="232" depart="232.00">
        <personTrip from="160113798#1" to="190323548#1" modes="public"/>
    </person>
    <person id="233" depart="233.00">
        <personTrip from="-95328703#5" to="658628920" modes="public"/>
    </person>
    <person id="234" depart="234.00">
        <personTrip from="-26002795#14" to="-26007170#1" modes="public"/>
    </person>
    <person id="235" depart="235.00">
        <personTrip from="-26006993#5" to="-153232557#0" modes="public"/>
    </person>
    <person id="236" depart="236.00">
        <personTrip from="481002333#1" to="-26009017#4" modes="public"/>
    </person>
    <person id="237" depart="237.00">
        <personTrip from="-474929504" to="-158195022" modes="public"/>
    </person>
    <person id="238" depart="238.00">
        <personTrip from="153940245#1" to="188266559" modes="public"/>
    </person>
    <person id="239" depart="239.00">