<vType id="BUS" accel="2.6" decel="4.5" sigma="0" length="12" minGap="3" maxSpeed="70" color="1,1,0" guiShape="bus"/>
<flow id="110" color="1,1,0" begin="0" end="7200" period="200" type="BUS">
    <route
      edges= "158194880#1 158194912 158195022 -158195022 158195022 58974277 154036872 158426682 158426339#0 158426339#1 158426291 95475498#0 95475498#1 95475498#2 95475498#3 491706849 491706848 95475498#5 158426437#0 158426437#1 158426437#2 158748997 158748998#0 -235084921#1 -235084921#0 -235084920#1 235084923#0 685225992 188147840#5 188147840#6 188147840#7 158426437#2 158426437#3 158426437#4 158426437#5 158426437#6 158426437#7 158426437#0 95475538#0 95475538#1 95475538#2 154054008#0 154054008#1 162657808 188147868 188147860 188147849#0 188147849#1 188147849#2 111614727#0 111614727#1 158426232#0 158426232#1 158426232#2 158426232#3 158426232#4 158426232#5 158426543 158426210#1 165499564 162657796 188266548 188266552 158194834#0 158194834#1 158194834#2 137316341 110860260#0 110860260#1 622919985 158194834#4 158194834#5 160114050 160113713 160113701#0 160113701#1 160113701#2 160113701#3 160113701#4 131665143#9 131665144 160114121 160113720#0 160113720#1 160113720#2 -158194814#5 -158194814#4 -158194814#3 -158194814#2 -158194814#1 -158194814#0 -158194879#8 -158194879#7 -158194879#6 -158194879#5 -158194879#4 -158194879#3 -158194879#2 -158194879#1 -158194879#0 158194868 160113987 25991666#0 -25991666#0 158426734 25991598#0 25991598#1 25991598#2 162072481 188531101 188531095 162072482 158426507#0 158426507#1 160113769#0 160113769#1 160113769#2 25948293#0 25948293#1 25948293#2 492425109#0 492425109#1 492425109#2 492426170 163699996 187482447 188822636 187482402#0 187482402#1 187482402#2 95186908 106475733#0 106475733#1 106475733#2 160113901#0 160113901#1 163699973 163699970#0 153940218#0 153940218#1 153940227#1 153940239#0 153940252#0 -153940236#1 154283671#4 154283671#5 154283671#6 154283671#7 -105617962#5 -105617962#4 -105617962#3 -105617962#2 -105617962#1 -105617962#0 488341411 160113737#9 160113737#10 160113737#11 160113737#12 360762117 117318943#1 223152207 223152210 117318943#3 117318943#4 117318943#5 115628470#0 115628470#1 115628470#2 488494821#0 488494821#1 488494821#2 488494821#3 488494821#4 488494821#5 621342675#0 621342675#1 621342675#2 -480255700#20 -480255700#19 -480255700#18 -480255700#17 -480255700#16 -480255700#15 -480255700#14 -480255700#13 -480255700#12 -480255700#11 -480237235#1 -480237235#0 488494811#5 488349631#0 488349631#1 488349631#2 488349631#3 488349631#4 488349631#5 488349631#6 488349631#7 155988280#7 155988280#8 155988280#9 155988280#10 155988280#11 155988280#12 155988281#6 155988281#7 155988281#8 155988281#0 480255686#0 480255686#1 480255686#2 480255686#3 488494818#0 488494818#1 115628455#6 115628455#7 115628455#8 115628455#0 115628455#1 115628455#2 153940693#0 153940693#1 153940693#2 153940693#3 153940693#4 153940693#5 95187236#14 95187236#15 95187236#16 95187236#17 635944737#0 488509914#2 488509928 635944741 488345108#2 488509917#2 488509920 635944743 176155596#21 176155596#22 488345109#0 488345109#1 488345109#2 488345109#3 488345109#4 479822480#0 479822480#1 479821358#1 479821358#2 620934244#0 620934244#1 620934244#2 -479817734#0 60893886#0 60893886#1 60893886#2 60893886#3 60893886#4 60893886#5 60893886#6 206489306 488345107#3 488345107#4 488345107#5 488345107#6 488345107#7 206082716#0 206082716#1 206082716#2 250878564 488345107#9 488345107#10 95187233 156964507#1 211955344 206082716#8 206082782#0 206082782#1 206082782#2 -211954205#3 -211954205#2 -211954205#1 -211954205#0 -60893786#5 -60893786#4 -60893786#3 -60893786#2 -206486631 -206490002 -206489305#8 -206489305#7 -206489305#6 -206489305#5 -206489305#4 -206489305#3 -206489305#2 -206489305#1 -206489305#0 -211934806#4 -211934806#3 -211934806#2 -211934806#1 -211934806#0 -183786037#2 -183786037#1 -183786037#0 480285106#13 480285106#14 480285106#15 479822479#0 479822479#1 479822479#2 479822481#0 479822481#1 479822481#2 479822481#3 488345108#0 488345108#1 488345108#2 488345108#3 488345108#4 488345108#5 488345108#6 488345108#7 488338981#1 488338981#2 488338981#3 111424625#1 111424625#2 153940692#0 153940692#1 153940692#2 153940692#3 115628455#2 115628455#3 115628455#4 115628450#0 115628450#1 115628450#2 115628450#3 155988281#2 155988281#3 155988281#4 488351083#0 488351083#1 488351083#2 488351083#3 488351083#4 -488349631#8 -488349631#7 -488349631#6 -488349631#5 -488349631#4 -488349631#3 -488349631#2 -488349631#1 -488349631#0 -26007194#1 -26007194#0 480255700#10 480255700#11 480255700#12 480255700#13 480255700#14 480255700#15 480255700#16 480255700#17 480255700#18 480255700#19 480255700#20 621342676#0 621342676#1 480255690#6 480255690#7 480255690#8 480255690#9 480255690#10 480255690#11 488491779 488491780 488494820#0 488494820#1 117318941#0 479816304#0 479816304#1 479816304#2 153940278#0 153940278#1 153940278#2 153940278#3 153940278#4 153940278#5 153940278#6 -163699973 -160113901#1 -160113901#0 -154283673#4 -154283673#3 105617963#0 -105617963#0 -154283673#2 -154283673#1 -154283673#0 105617959#1 133958421#4 133958421#5 133958421#6 133958421#7 187482429 187490896 187490898 492430461 158426520#0 158426520#1 158426520#2 158426520#3 492425087#0 492425087#1 492425087#2 158194864#0 158194864#1 158194877#0 158194877#1 158194877#2 103981485 154289123#1 106398079 123374755#1 361648353 -165499586#2 -165499586#1 -26003793#4 -26003793#3 -26003793#2 -26003793#1 -26003793#0 -26003799#2 26003784 488091221 158194877#2 158194877#3 162072480 188531097 188531099 162072483 25991592#0 25991592#1 25991592#2 158194977#0 158194977#1 158194867 158194879#0 158194879#1 158194879#2 158194879#3 158194879#4 158194879#5 158194879#6 158194879#7 158194879#8 158194814#0 158194814#1 158194814#2 158194814#3 158194814#4 158194814#5 131665143#0 131665143#1 131665143#2 131665143#3 131665143#4 131665143#5 131665143#6 131665143#7 131665143#8 -160113701#4 -160113701#3 -160113701#2 -162179046#7 162179046#7 -160113701#1 -160113701#0 139105791#0 139105791#1 139105791#2 162723716#0 162723716#1 755033427 162723718#0 162723718#1 154053960 207632643#6 207632643#7 110860263 162723718#3 162723718#4 162723718#5 162657795 188266551 188266550 158194824#0 158194824#1 158194824#2 491190428 115738581#2 115738581#3 115738581#4 121831270 491190425 115738581#6 158194824#6 158194824#7 162657797 95475501 188147852 188147853#0 188147853#1 165487301#0 165487301#1 165487301#2 165487301#3 622830777#0 622830777#1 158194914#1 160114025#0 -658332481 492229541#1 165487301#3 165487301#4 158194914#0 158194914#1 158194914#2 158194880#0 158194880#1"
      />
</flow>
