<?xml version="1.0" encoding="UTF-8"?>

<!-- generated on 01/24/20 01:19:02 by Eclipse SUMO duarouter Version 1.3.1
<configuration xmlns:xsi="http://www.w3.org/2001/XMLSchema-instance" xsi:noNamespaceSchemaLocation="http://sumo.dlr.de/xsd/duarouterConfiguration.xsd">

    <input>
        <net-file value="shape_110.net.xml"/>
        <route-files value="routes.routes.xml"/>
    </input>

    <output>
        <output-file value="repaiered.routes.xml"/>
        <alternatives-output value="repaiered.routes.alt.xml"/>
    </output>

    <processing>
        <remove-loops value="true"/>
    </processing>

    <report>
        <verbose value="true"/>
        <ignore-errors value="true"/>
    </report>

</configuration>
-->

<routes xmlns:xsi="http://www.w3.org/2001/XMLSchema-instance" xsi:noNamespaceSchemaLocation="http://sumo.dlr.de/xsd/routes_file.xsd">
    <vType id="BUS" length="12.00" minGap="3.00" maxSpeed="70.00" guiShape="bus" color="yellow" accel="2.6" decel="4.5" sigma="0"/>
    <vehicle id="110.0" type="BUS" depart="0.00" color="yellow">
        <route color="cyan" edges="158195022 58974277 154036872 158426682 158426339#0 158426339#1 158426291 95475498#0 95475498#1 95475498#2 95475498#3 491706849 491706848 95475498#5 158426437#0 95475538#0 95475538#1 95475538#2 154054008#0 154054008#1 162657808 188147868 188147860 188147849#0 188147849#1 188147849#2 111614727#0 111614727#1 158426232#0 158426232#1 158426232#2 158426232#3 158426232#4 158426232#5 158426543 158426210#1 165499564 162657796 188266548 188266552 158194834#0 158194834#1 158194834#2 137316341 110860260#0 110860260#1 622919985 158194834#4 158194834#5 160114050 160113713 160113701#0 160113701#1 160113701#2 160113701#3 160113701#4 131665143#9 131665144 160113724#0 160113724#1 160113720#0 160113720#1 160113720#2 -158194814#5 -158194814#4 -158194814#3 -158194814#2 -158194814#1 -158194814#0 -158194879#8 -158194879#7 -158194879#6 -158194879#5 -158194879#4 -158194879#3 -158194879#2 -158194879#1 -158194879#0 158194868 160113987 25991666#0 -25991666#0 158426734 25991598#0 25991598#1 25991598#2 162072481 188531101 188531095 162072482 158426507#0 158426507#1 160113769#0 160113769#1 160113769#2 25948293#0 25948293#1 25948293#2 492425109#0 492425109#1 492425109#2 492426170 163699996 187482447 188822636 187482402#0 187482402#1 187482402#2 95186908 106475733#0 106475733#1 106475733#2 160113901#0 160113901#1 163699973 163699970#0 153940218#0 153940218#1 153940227#1 153940239#0 153940252#0 -153940236#1 154283671#4 154283671#5 154283671#6 154283671#7 -105617962#5 -105617962#4 -105617962#3 -105617962#2 -105617962#1 -105617962#0 488341411 160113737#9 160113737#10 160113737#11 160113737#12 360762117 117318943#1 117318943#2 117318943#3 117318943#4 117318943#5 115628470#0 115628470#1 115628470#2 488494821#0 488494821#1 488494821#2 488494821#3 488494821#4 488494821#5 621342675#0 621342675#1 621342675#2 -480255700#20 -480255700#19 -480255700#18 -480255700#17 -480255700#16 -480255700#15 -480255700#14 -480255700#13 -480255700#12 -480255700#11 -480237235#1 -480237235#0 488494811#5 488349631#0 488349631#1 488349631#2 488349631#3 488349631#4 488349631#5 488349631#6 488349631#7 155988280#7 155988280#8 155988280#9 155988280#10 155988280#11 155988280#12 155988281#6 155988281#7 155988281#8 155988281#0 480255686#0 480255686#1 480255686#2 480255686#3 488494818#0 488494818#1 115628455#6 115628455#7 115628455#8 115628455#0 115628455#1 115628455#2 115628455#3 115628455#4 115628450#0 115628450#1 115628450#2 115628450#3 155988281#2 155988281#3 155988281#4 488351083#0 488351083#1 488351083#2 488351083#3 488351083#4 -488349631#8 -488349631#7 -488349631#6 -488349631#5 -488349631#4 -488349631#3 -488349631#2 -488349631#1 -488349631#0 -26007194#1 -26007194#0 480255700#10 480255700#11 480255700#12 480255700#13 480255700#14 480255700#15 480255700#16 480255700#17 480255700#18 480255700#19 480255700#20 621342676#0 621342676#1 480255690#6 480255690#7 480255690#8 480255690#9 480255690#10 480255690#11 488491779 488491780 488494820#0 488494820#1 117318941#0 479816304#0 479816304#1 479816304#2 153940278#0 153940278#1 153940278#2 153940278#3 153940278#4 153940278#5 153940278#6 -163699973 -160113901#1 -160113901#0 -154283673#4 -154283673#3 -154283673#2 -154283673#1 -154283673#0 105617959#1 133958421#4 133958421#5 133958421#6 133958421#7 187482429 187490896 187490898 492430461 158426520#0 158426520#1 158426520#2 158426520#3 492425087#0 492425087#1 492425087#2 158194864#0 158194864#1 158194877#0 158194877#1 158194877#2 158194877#3 162072480 188531097 188531099 162072483 25991592#0 25991592#1 25991592#2 158194977#0 158194977#1 158194867 158194879#0 158194879#1 158194879#2 158194879#3 158194879#4 158194879#5 158194879#6 158194879#7 158194879#8 158194814#0 158194814#1 158194814#2 158194814#3 158194814#4 158194814#5 131665143#0 131665143#1 131665143#2 131665143#3 131665143#4 131665143#5 131665143#6 131665143#7 131665143#8 -160113701#4 -160113701#3 -160113701#2 -162179046#7 162179046#7 -160113701#1 -160113701#0 139105791#0 139105791#1 139105791#2 162723716#0 162723716#1 755033427 162723718#0 162723718#1 154053960 207632643#6 207632643#7 110860263 162723718#3 162723718#4 162723718#5 162657795 188266551 188266550 158194824#0 158194824#1 158194824#2 491190428 115738581#2 115738581#3 115738581#4 121831270 491190425 115738581#6 158194824#6 158194824#7 162657797 95475501 188147852 188147853#0 188147853#1 165487301#0 165487301#1 165487301#2 165487301#3 622830777#0 622830777#1 158194914#1"/>
    </vehicle>
    <vehicle id="110.1" type="BUS" depart="200.00" color="yellow">
        <route color="cyan" edges="158195022 58974277 154036872 158426682 158426339#0 158426339#1 158426291 95475498#0 95475498#1 95475498#2 95475498#3 491706849 491706848 95475498#5 158426437#0 95475538#0 95475538#1 95475538#2 154054008#0 154054008#1 162657808 188147868 188147860 188147849#0 188147849#1 188147849#2 111614727#0 111614727#1 158426232#0 158426232#1 158426232#2 158426232#3 158426232#4 158426232#5 158426543 158426210#1 165499564 162657796 188266548 188266552 158194834#0 158194834#1 158194834#2 137316341 110860260#0 110860260#1 622919985 158194834#4 158194834#5 160114050 160113713 160113701#0 160113701#1 160113701#2 160113701#3 160113701#4 131665143#9 131665144 160113724#0 160113724#1 160113720#0 160113720#1 160113720#2 -158194814#5 -158194814#4 -158194814#3 -158194814#2 -158194814#1 -158194814#0 -158194879#8 -158194879#7 -158194879#6 -158194879#5 -158194879#4 -158194879#3 -158194879#2 -158194879#1 -158194879#0 158194868 160113987 25991666#0 -25991666#0 158426734 25991598#0 25991598#1 25991598#2 162072481 188531101 188531095 162072482 158426507#0 158426507#1 160113769#0 160113769#1 160113769#2 25948293#0 25948293#1 25948293#2 492425109#0 492425109#1 492425109#2 492426170 163699996 187482447 188822636 187482402#0 187482402#1 187482402#2 95186908 106475733#0 106475733#1 106475733#2 160113901#0 160113901#1 163699973 163699970#0 153940218#0 153940218#1 153940227#1 153940239#0 153940252#0 -153940236#1 154283671#4 154283671#5 154283671#6 154283671#7 -105617962#5 -105617962#4 -105617962#3 -105617962#2 -105617962#1 -105617962#0 488341411 160113737#9 160113737#10 160113737#11 160113737#12 360762117 117318943#1 117318943#2 117318943#3 117318943#4 117318943#5 115628470#0 115628470#1 115628470#2 488494821#0 488494821#1 488494821#2 488494821#3 488494821#4 488494821#5 621342675#0 621342675#1 621342675#2 -480255700#20 -480255700#19 -480255700#18 -480255700#17 -480255700#16 -480255700#15 -480255700#14 -480255700#13 -480255700#12 -480255700#11 -480237235#1 -480237235#0 488494811#5 488349631#0 488349631#1 488349631#2 488349631#3 488349631#4 488349631#5 488349631#6 488349631#7 155988280#7 155988280#8 155988280#9 155988280#10 155988280#11 155988280#12 155988281#6 155988281#7 155988281#8 155988281#0 480255686#0 480255686#1 480255686#2 480255686#3 488494818#0 488494818#1 115628455#6 115628455#7 115628455#8 115628455#0 115628455#1 115628455#2 115628455#3 115628455#4 115628450#0 115628450#1 115628450#2 115628450#3 155988281#2 155988281#3 155988281#4 488351083#0 488351083#1 488351083#2 488351083#3 488351083#4 -488349631#8 -488349631#7 -488349631#6 -488349631#5 -488349631#4 -488349631#3 -488349631#2 -488349631#1 -488349631#0 -26007194#1 -26007194#0 480255700#10 480255700#11 480255700#12 480255700#13 480255700#14 480255700#15 480255700#16 480255700#17 480255700#18 480255700#19 480255700#20 621342676#0 621342676#1 480255690#6 480255690#7 480255690#8 480255690#9 480255690#10 480255690#11 488491779 488491780 488494820#0 488494820#1 117318941#0 479816304#0 479816304#1 479816304#2 153940278#0 153940278#1 153940278#2 153940278#3 153940278#4 153940278#5 153940278#6 -163699973 -160113901#1 -160113901#0 -154283673#4 -154283673#3 -154283673#2 -154283673#1 -154283673#0 105617959#1 133958421#4 133958421#5 133958421#6 133958421#7 187482429 187490896 187490898 492430461 158426520#0 158426520#1 158426520#2 158426520#3 492425087#0 492425087#1 492425087#2 158194864#0 158194864#1 158194877#0 158194877#1 158194877#2 158194877#3 162072480 188531097 188531099 162072483 25991592#0 25991592#1 25991592#2 158194977#0 158194977#1 158194867 158194879#0 158194879#1 158194879#2 158194879#3 158194879#4 158194879#5 158194879#6 158194879#7 158194879#8 158194814#0 158194814#1 158194814#2 158194814#3 158194814#4 158194814#5 131665143#0 131665143#1 131665143#2 131665143#3 131665143#4 131665143#5 131665143#6 131665143#7 131665143#8 -160113701#4 -160113701#3 -160113701#2 -162179046#7 162179046#7 -160113701#1 -160113701#0 139105791#0 139105791#1 139105791#2 162723716#0 162723716#1 755033427 162723718#0 162723718#1 154053960 207632643#6 207632643#7 110860263 162723718#3 162723718#4 162723718#5 162657795 188266551 188266550 158194824#0 158194824#1 158194824#2 491190428 115738581#2 115738581#3 115738581#4 121831270 491190425 115738581#6 158194824#6 158194824#7 162657797 95475501 188147852 188147853#0 188147853#1 165487301#0 165487301#1 165487301#2 165487301#3 622830777#0 622830777#1 158194914#1"/>
    </vehicle>
    <vehicle id="110.2" type="BUS" depart="400.00" color="yellow">
        <route color="cyan" edges="158195022 58974277 154036872 158426682 158426339#0 158426339#1 158426291 95475498#0 95475498#1 95475498#2 95475498#3 491706849 491706848 95475498#5 158426437#0 95475538#0 95475538#1 95475538#2 154054008#0 154054008#1 162657808 188147868 188147860 188147849#0 188147849#1 188147849#2 111614727#0 111614727#1 158426232#0 158426232#1 158426232#2 158426232#3 158426232#4 158426232#5 158426543 158426210#1 165499564 162657796 188266548 188266552 158194834#0 158194834#1 158194834#2 137316341 110860260#0 110860260#1 622919985 158194834#4 158194834#5 160114050 160113713 160113701#0 160113701#1 160113701#2 160113701#3 160113701#4 131665143#9 131665144 160113724#0 160113724#1 160113720#0 160113720#1 160113720#2 -158194814#5 -158194814#4 -158194814#3 -158194814#2 -158194814#1 -158194814#0 -158194879#8 -158194879#7 -158194879#6 -158194879#5 -158194879#4 -158194879#3 -158194879#2 -158194879#1 -158194879#0 158194868 160113987 25991666#0 -25991666#0 158426734 25991598#0 25991598#1 25991598#2 162072481 188531101 188531095 162072482 158426507#0 158426507#1 160113769#0 160113769#1 160113769#2 25948293#0 25948293#1 25948293#2 492425109#0 492425109#1 492425109#2 492426170 163699996 187482447 188822636 187482402#0 187482402#1 187482402#2 95186908 106475733#0 106475733#1 106475733#2 160113901#0 160113901#1 163699973 163699970#0 153940218#0 153940218#1 153940227#1 153940239#0 153940252#0 -153940236#1 154283671#4 154283671#5 154283671#6 154283671#7 -105617962#5 -105617962#4 -105617962#3 -105617962#2 -105617962#1 -105617962#0 488341411 160113737#9 160113737#10 160113737#11 160113737#12 360762117 117318943#1 117318943#2 117318943#3 117318943#4 117318943#5 115628470#0 115628470#1 115628470#2 488494821#0 488494821#1 488494821#2 488494821#3 488494821#4 488494821#5 621342675#0 621342675#1 621342675#2 -480255700#20 -480255700#19 -480255700#18 -480255700#17 -480255700#16 -480255700#15 -480255700#14 -480255700#13 -480255700#12 -480255700#11 -480237235#1 -480237235#0 488494811#5 488349631#0 488349631#1 488349631#2 488349631#3 488349631#4 488349631#5 488349631#6 488349631#7 155988280#7 155988280#8 155988280#9 155988280#10 155988280#11 155988280#12 155988281#6 155988281#7 155988281#8 155988281#0 480255686#0 480255686#1 480255686#2 480255686#3 488494818#0 488494818#1 115628455#6 115628455#7 115628455#8 115628455#0 115628455#1 115628455#2 115628455#3 115628455#4 115628450#0 115628450#1 115628450#2 115628450#3 155988281#2 155988281#3 155988281#4 488351083#0 488351083#1 488351083#2 488351083#3 488351083#4 -488349631#8 -488349631#7 -488349631#6 -488349631#5 -488349631#4 -488349631#3 -488349631#2 -488349631#1 -488349631#0 -26007194#1 -26007194#0 480255700#10 480255700#11 480255700#12 480255700#13 480255700#14 480255700#15 480255700#16 480255700#17 480255700#18 480255700#19 480255700#20 621342676#0 621342676#1 480255690#6 480255690#7 480255690#8 480255690#9 480255690#10 480255690#11 488491779 488491780 488494820#0 488494820#1 117318941#0 479816304#0 479816304#1 479816304#2 153940278#0 153940278#1 153940278#2 153940278#3 153940278#4 153940278#5 153940278#6 -163699973 -160113901#1 -160113901#0 -154283673#4 -154283673#3 -154283673#2 -154283673#1 -154283673#0 105617959#1 133958421#4 133958421#5 133958421#6 133958421#7 187482429 187490896 187490898 492430461 158426520#0 158426520#1 158426520#2 158426520#3 492425087#0 492425087#1 492425087#2 158194864#0 158194864#1 158194877#0 158194877#1 158194877#2 158194877#3 162072480 188531097 188531099 162072483 25991592#0 25991592#1 25991592#2 158194977#0 158194977#1 158194867 158194879#0 158194879#1 158194879#2 158194879#3 158194879#4 158194879#5 158194879#6 158194879#7 158194879#8 158194814#0 158194814#1 158194814#2 158194814#3 158194814#4 158194814#5 131665143#0 131665143#1 131665143#2 131665143#3 131665143#4 131665143#5 131665143#6 131665143#7 131665143#8 -160113701#4 -160113701#3 -160113701#2 -162179046#7 162179046#7 -160113701#1 -160113701#0 139105791#0 139105791#1 139105791#2 162723716#0 162723716#1 755033427 162723718#0 162723718#1 154053960 207632643#6 207632643#7 110860263 162723718#3 162723718#4 162723718#5 162657795 188266551 188266550 158194824#0 158194824#1 158194824#2 491190428 115738581#2 115738581#3 115738581#4 121831270 491190425 115738581#6 158194824#6 158194824#7 162657797 95475501 188147852 188147853#0 188147853#1 165487301#0 165487301#1 165487301#2 165487301#3 622830777#0 622830777#1 158194914#1"/>
    </vehicle>
    <vehicle id="110.3" type="BUS" depart="600.00" color="yellow">
        <route color="cyan" edges="158195022 58974277 154036872 158426682 158426339#0 158426339#1 158426291 95475498#0 95475498#1 95475498#2 95475498#3 491706849 491706848 95475498#5 158426437#0 95475538#0 95475538#1 95475538#2 154054008#0 154054008#1 162657808 188147868 188147860 188147849#0 188147849#1 188147849#2 111614727#0 111614727#1 158426232#0 158426232#1 158426232#2 158426232#3 158426232#4 158426232#5 158426543 158426210#1 165499564 162657796 188266548 188266552 158194834#0 158194834#1 158194834#2 137316341 110860260#0 110860260#1 622919985 158194834#4 158194834#5 160114050 160113713 160113701#0 160113701#1 160113701#2 160113701#3 160113701#4 131665143#9 131665144 160113724#0 160113724#1 160113720#0 160113720#1 160113720#2 -158194814#5 -158194814#4 -158194814#3 -158194814#2 -158194814#1 -158194814#0 -158194879#8 -158194879#7 -158194879#6 -158194879#5 -158194879#4 -158194879#3 -158194879#2 -158194879#1 -158194879#0 158194868 160113987 25991666#0 -25991666#0 158426734 25991598#0 25991598#1 25991598#2 162072481 188531101 188531095 162072482 158426507#0 158426507#1 160113769#0 160113769#1 160113769#2 25948293#0 25948293#1 25948293#2 492425109#0 492425109#1 492425109#2 492426170 163699996 187482447 188822636 187482402#0 187482402#1 187482402#2 95186908 106475733#0 106475733#1 106475733#2 160113901#0 160113901#1 163699973 163699970#0 153940218#0 153940218#1 153940227#1 153940239#0 153940252#0 -153940236#1 154283671#4 154283671#5 154283671#6 154283671#7 -105617962#5 -105617962#4 -105617962#3 -105617962#2 -105617962#1 -105617962#0 488341411 160113737#9 160113737#10 160113737#11 160113737#12 360762117 117318943#1 117318943#2 117318943#3 117318943#4 117318943#5 115628470#0 115628470#1 115628470#2 488494821#0 488494821#1 488494821#2 488494821#3 488494821#4 488494821#5 621342675#0 621342675#1 621342675#2 -480255700#20 -480255700#19 -480255700#18 -480255700#17 -480255700#16 -480255700#15 -480255700#14 -480255700#13 -480255700#12 -480255700#11 -480237235#1 -480237235#0 488494811#5 488349631#0 488349631#1 488349631#2 488349631#3 488349631#4 488349631#5 488349631#6 488349631#7 155988280#7 155988280#8 155988280#9 155988280#10 155988280#11 155988280#12 155988281#6 155988281#7 155988281#8 155988281#0 480255686#0 480255686#1 480255686#2 480255686#3 488494818#0 488494818#1 115628455#6 115628455#7 115628455#8 115628455#0 115628455#1 115628455#2 115628455#3 115628455#4 115628450#0 115628450#1 115628450#2 115628450#3 155988281#2 155988281#3 155988281#4 488351083#0 488351083#1 488351083#2 488351083#3 488351083#4 -488349631#8 -488349631#7 -488349631#6 -488349631#5 -488349631#4 -488349631#3 -488349631#2 -488349631#1 -488349631#0 -26007194#1 -26007194#0 480255700#10 480255700#11 480255700#12 480255700#13 480255700#14 480255700#15 480255700#16 480255700#17 480255700#18 480255700#19 480255700#20 621342676#0 621342676#1 480255690#6 480255690#7 480255690#8 480255690#9 480255690#10 480255690#11 488491779 488491780 488494820#0 488494820#1 117318941#0 479816304#0 479816304#1 479816304#2 153940278#0 153940278#1 153940278#2 153940278#3 153940278#4 153940278#5 153940278#6 -163699973 -160113901#1 -160113901#0 -154283673#4 -154283673#3 -154283673#2 -154283673#1 -154283673#0 105617959#1 133958421#4 133958421#5 133958421#6 133958421#7 187482429 187490896 187490898 492430461 158426520#0 158426520#1 158426520#2 158426520#3 492425087#0 492425087#1 492425087#2 158194864#0 158194864#1 158194877#0 158194877#1 158194877#2 158194877#3 162072480 188531097 188531099 162072483 25991592#0 25991592#1 25991592#2 158194977#0 158194977#1 158194867 158194879#0 158194879#1 158194879#2 158194879#3 158194879#4 158194879#5 158194879#6 158194879#7 158194879#8 158194814#0 158194814#1 158194814#2 158194814#3 158194814#4 158194814#5 131665143#0 131665143#1 131665143#2 131665143#3 131665143#4 131665143#5 131665143#6 131665143#7 131665143#8 -160113701#4 -160113701#3 -160113701#2 -162179046#7 162179046#7 -160113701#1 -160113701#0 139105791#0 139105791#1 139105791#2 162723716#0 162723716#1 755033427 162723718#0 162723718#1 154053960 207632643#6 207632643#7 110860263 162723718#3 162723718#4 162723718#5 162657795 188266551 188266550 158194824#0 158194824#1 158194824#2 491190428 115738581#2 115738581#3 115738581#4 121831270 491190425 115738581#6 158194824#6 158194824#7 162657797 95475501 188147852 188147853#0 188147853#1 165487301#0 165487301#1 165487301#2 165487301#3 622830777#0 622830777#1 158194914#1"/>
    </vehicle>
    <vehicle id="110.4" type="BUS" depart="800.00" color="yellow">
        <route color="cyan" edges="158195022 58974277 154036872 158426682 158426339#0 158426339#1 158426291 95475498#0 95475498#1 95475498#2 95475498#3 491706849 491706848 95475498#5 158426437#0 95475538#0 95475538#1 95475538#2 154054008#0 154054008#1 162657808 188147868 188147860 188147849#0 188147849#1 188147849#2 111614727#0 111614727#1 158426232#0 158426232#1 158426232#2 158426232#3 158426232#4 158426232#5 158426543 158426210#1 165499564 162657796 188266548 188266552 158194834#0 158194834#1 158194834#2 137316341 110860260#0 110860260#1 622919985 158194834#4 158194834#5 160114050 160113713 160113701#0 160113701#1 160113701#2 160113701#3 160113701#4 131665143#9 131665144 160113724#0 160113724#1 160113720#0 160113720#1 160113720#2 -158194814#5 -158194814#4 -158194814#3 -158194814#2 -158194814#1 -158194814#0 -158194879#8 -158194879#7 -158194879#6 -158194879#5 -158194879#4 -158194879#3 -158194879#2 -158194879#1 -158194879#0 158194868 160113987 25991666#0 -25991666#0 158426734 25991598#0 25991598#1 25991598#2 162072481 188531101 188531095 162072482 158426507#0 158426507#1 160113769#0 160113769#1 160113769#2 25948293#0 25948293#1 25948293#2 492425109#0 492425109#1 492425109#2 492426170 163699996 187482447 188822636 187482402#0 187482402#1 187482402#2 95186908 106475733#0 106475733#1 106475733#2 160113901#0 160113901#1 163699973 163699970#0 153940218#0 153940218#1 153940227#1 153940239#0 153940252#0 -153940236#1 154283671#4 154283671#5 154283671#6 154283671#7 -105617962#5 -105617962#4 -105617962#3 -105617962#2 -105617962#1 -105617962#0 488341411 160113737#9 160113737#10 160113737#11 160113737#12 360762117 117318943#1 117318943#2 117318943#3 117318943#4 117318943#5 115628470#0 115628470#1 115628470#2 488494821#0 488494821#1 488494821#2 488494821#3 488494821#4 488494821#5 621342675#0 621342675#1 621342675#2 -480255700#20 -480255700#19 -480255700#18 -480255700#17 -480255700#16 -480255700#15 -480255700#14 -480255700#13 -480255700#12 -480255700#11 -480237235#1 -480237235#0 488494811#5 488349631#0 488349631#1 488349631#2 488349631#3 488349631#4 488349631#5 488349631#6 488349631#7 155988280#7 155988280#8 155988280#9 155988280#10 155988280#11 155988280#12 155988281#6 155988281#7 155988281#8 155988281#0 480255686#0 480255686#1 480255686#2 480255686#3 488494818#0 488494818#1 115628455#6 115628455#7 115628455#8 115628455#0 115628455#1 115628455#2 115628455#3 115628455#4 115628450#0 115628450#1 115628450#2 115628450#3 155988281#2 155988281#3 155988281#4 488351083#0 488351083#1 488351083#2 488351083#3 488351083#4 -488349631#8 -488349631#7 -488349631#6 -488349631#5 -488349631#4 -488349631#3 -488349631#2 -488349631#1 -488349631#0 -26007194#1 -26007194#0 480255700#10 480255700#11 480255700#12 480255700#13 480255700#14 480255700#15 480255700#16 480255700#17 480255700#18 480255700#19 480255700#20 621342676#0 621342676#1 480255690#6 480255690#7 480255690#8 480255690#9 480255690#10 480255690#11 488491779 488491780 488494820#0 488494820#1 117318941#0 479816304#0 479816304#1 479816304#2 153940278#0 153940278#1 153940278#2 153940278#3 153940278#4 153940278#5 153940278#6 -163699973 -160113901#1 -160113901#0 -154283673#4 -154283673#3 -154283673#2 -154283673#1 -154283673#0 105617959#1 133958421#4 133958421#5 133958421#6 133958421#7 187482429 187490896 187490898 492430461 158426520#0 158426520#1 158426520#2 158426520#3 492425087#0 492425087#1 492425087#2 158194864#0 158194864#1 158194877#0 158194877#1 158194877#2 158194877#3 162072480 188531097 188531099 162072483 25991592#0 25991592#1 25991592#2 158194977#0 158194977#1 158194867 158194879#0 158194879#1 158194879#2 158194879#3 158194879#4 158194879#5 158194879#6 158194879#7 158194879#8 158194814#0 158194814#1 158194814#2 158194814#3 158194814#4 158194814#5 131665143#0 131665143#1 131665143#2 131665143#3 131665143#4 131665143#5 131665143#6 131665143#7 131665143#8 -160113701#4 -160113701#3 -160113701#2 -162179046#7 162179046#7 -160113701#1 -160113701#0 139105791#0 139105791#1 139105791#2 162723716#0 162723716#1 755033427 162723718#0 162723718#1 154053960 207632643#6 207632643#7 110860263 162723718#3 162723718#4 162723718#5 162657795 188266551 188266550 158194824#0 158194824#1 158194824#2 491190428 115738581#2 115738581#3 115738581#4 121831270 491190425 115738581#6 158194824#6 158194824#7 162657797 95475501 188147852 188147853#0 188147853#1 165487301#0 165487301#1 165487301#2 165487301#3 622830777#0 622830777#1 158194914#1"/>
    </vehicle>
    <vehicle id="110.5" type="BUS" depart="1000.00" color="yellow">
        <route color="cyan" edges="158195022 58974277 154036872 158426682 158426339#0 158426339#1 158426291 95475498#0 95475498#1 95475498#2 95475498#3 491706849 491706848 95475498#5 158426437#0 95475538#0 95475538#1 95475538#2 154054008#0 154054008#1 162657808 188147868 188147860 188147849#0 188147849#1 188147849#2 111614727#0 111614727#1 158426232#0 158426232#1 158426232#2 158426232#3 158426232#4 158426232#5 158426543 158426210#1 165499564 162657796 188266548 188266552 158194834#0 158194834#1 158194834#2 137316341 110860260#0 110860260#1 622919985 158194834#4 158194834#5 160114050 160113713 160113701#0 160113701#1 160113701#2 160113701#3 160113701#4 131665143#9 131665144 160113724#0 160113724#1 160113720#0 160113720#1 160113720#2 -158194814#5 -158194814#4 -158194814#3 -158194814#2 -158194814#1 -158194814#0 -158194879#8 -158194879#7 -158194879#6 -158194879#5 -158194879#4 -158194879#3 -158194879#2 -158194879#1 -158194879#0 158194868 160113987 25991666#0 -25991666#0 158426734 25991598#0 25991598#1 25991598#2 162072481 188531101 188531095 162072482 158426507#0 158426507#1 160113769#0 160113769#1 160113769#2 25948293#0 25948293#1 25948293#2 492425109#0 492425109#1 492425109#2 492426170 163699996 187482447 188822636 187482402#0 187482402#1 187482402#2 95186908 106475733#0 106475733#1 106475733#2 160113901#0 160113901#1 163699973 163699970#0 153940218#0 153940218#1 153940227#1 153940239#0 153940252#0 -153940236#1 154283671#4 154283671#5 154283671#6 154283671#7 -105617962#5 -105617962#4 -105617962#3 -105617962#2 -105617962#1 -105617962#0 488341411 160113737#9 160113737#10 160113737#11 160113737#12 360762117 117318943#1 117318943#2 117318943#3 117318943#4 117318943#5 115628470#0 115628470#1 115628470#2 488494821#0 488494821#1 488494821#2 488494821#3 488494821#4 488494821#5 621342675#0 621342675#1 621342675#2 -480255700#20 -480255700#19 -480255700#18 -480255700#17 -480255700#16 -480255700#15 -480255700#14 -480255700#13 -480255700#12 -480255700#11 -480237235#1 -480237235#0 488494811#5 488349631#0 488349631#1 488349631#2 488349631#3 488349631#4 488349631#5 488349631#6 488349631#7 155988280#7 155988280#8 155988280#9 155988280#10 155988280#11 155988280#12 155988281#6 155988281#7 155988281#8 155988281#0 480255686#0 480255686#1 480255686#2 480255686#3 488494818#0 488494818#1 115628455#6 115628455#7 115628455#8 115628455#0 115628455#1 115628455#2 115628455#3 115628455#4 115628450#0 115628450#1 115628450#2 115628450#3 155988281#2 155988281#3 155988281#4 488351083#0 488351083#1 488351083#2 488351083#3 488351083#4 -488349631#8 -488349631#7 -488349631#6 -488349631#5 -488349631#4 -488349631#3 -488349631#2 -488349631#1 -488349631#0 -26007194#1 -26007194#0 480255700#10 480255700#11 480255700#12 480255700#13 480255700#14 480255700#15 480255700#16 480255700#17 480255700#18 480255700#19 480255700#20 621342676#0 621342676#1 480255690#6 480255690#7 480255690#8 480255690#9 480255690#10 480255690#11 488491779 488491780 488494820#0 488494820#1 117318941#0 479816304#0 479816304#1 479816304#2 153940278#0 153940278#1 153940278#2 153940278#3 153940278#4 153940278#5 153940278#6 -163699973 -160113901#1 -160113901#0 -154283673#4 -154283673#3 -154283673#2 -154283673#1 -154283673#0 105617959#1 133958421#4 133958421#5 133958421#6 133958421#7 187482429 187490896 187490898 492430461 158426520#0 158426520#1 158426520#2 158426520#3 492425087#0 492425087#1 492425087#2 158194864#0 158194864#1 158194877#0 158194877#1 158194877#2 158194877#3 162072480 188531097 188531099 162072483 25991592#0 25991592#1 25991592#2 158194977#0 158194977#1 158194867 158194879#0 158194879#1 158194879#2 158194879#3 158194879#4 158194879#5 158194879#6 158194879#7 158194879#8 158194814#0 158194814#1 158194814#2 158194814#3 158194814#4 158194814#5 131665143#0 131665143#1 131665143#2 131665143#3 131665143#4 131665143#5 131665143#6 131665143#7 131665143#8 -160113701#4 -160113701#3 -160113701#2 -162179046#7 162179046#7 -160113701#1 -160113701#0 139105791#0 139105791#1 139105791#2 162723716#0 162723716#1 755033427 162723718#0 162723718#1 154053960 207632643#6 207632643#7 110860263 162723718#3 162723718#4 162723718#5 162657795 188266551 188266550 158194824#0 158194824#1 158194824#2 491190428 115738581#2 115738581#3 115738581#4 121831270 491190425 115738581#6 158194824#6 158194824#7 162657797 95475501 188147852 188147853#0 188147853#1 165487301#0 165487301#1 165487301#2 165487301#3 622830777#0 622830777#1 158194914#1"/>
    </vehicle>
    <vehicle id="110.6" type="BUS" depart="1200.00" color="yellow">