<routes xmlns:xsi="http://www.w3.org/2001/XMLSchema-instance" xsi:noNamespaceSchemaLocation="http://sumo.dlr.de/xsd/routes_file.xsd">
  <vType id="BUS" accel="2.6" decel="4.5" sigma="0" length="12" minGap="3" maxSpeed="70" color="1,1,0" guiShape="bus" personCapacity="25"/>
  <flow id="110" line="110" color="1,1,0" begin="0" end="7200" period="100" type="BUS" >
    <route color="0,255,255"
      edges="95475498#5 158426437#0 95475538#0 95475538#1 95475538#2 154054008#0 158426612 188147840#1 188147840#2 188147840#3 188147840#4 188147840#5 188147840#6 188147840#7 158426437#2 158426437#3 158426437#4 158426437#5 158426437#6 158426437#7 158426437#0 95475538#0 95475538#1 95475538#2 154054008#0 154054008#1 162657808 188147868 188147860 188147849#0 188147849#1 188147849#2 111614727#0 111614727#1 158426573 158426195#0 158426195#1 158426210#0 158426210#1 165499564 162657796 188266548 188266552 158194834#0 158194834#1 158194834#2 158194834#3 158194834#4 158194834#5 160114050 160113713 160113701#0 160113701#1 160113701#2 160113701#3 160113701#4 131665143#9 131665144 160113724#0 160113724#1 160113720#0 160113720#1 160113720#2 -158194814#5 -158194814#4 -158194814#3 -158194814#2 -158194814#1 -158194814#0 -158194879#8 -158194879#7 -158194879#6 -158194879#5 158194879#5 -158194879#5 -158194879#4 -158194879#3 -158194879#2 -158194879#1 -158194879#0 158194868 160113987 158426734 25991598#0 25991598#1 25991598#2 162072481 188531101 188531095 162072482 158426507#0 158426507#1 160113769#0 160113769#1 160113769#2 25948293#0 25948293#1 25948293#2 492425109#0 492425109#1 492425109#2 492426170 163699996 187482447 188822636 187482402#0 187482402#1 187482402#2 95186908 106475733#0 106475733#1 106475733#2 160113901#0 479816301 163699970#3 133618455#0 154283671#1 154283671#2 154283671#3 154283671#4 154283671#5 154283671#6 154283671#7 -105617962#5 -105617962#4 -105617962#3 -105617962#2 -105617962#1 105617962#1 105617962#2 105617962#3 105617962#4 105617962#5 154283671#8 154283671#9 105617964#0 105617964#1 105617964#2 105617964#3 115628470#1 115628470#2 488494821#0 488494821#1 488494821#2 488494821#3 488494821#4 488494821#5 621342675#0 621342675#1 621342675#2 -480255700#20 -480255700#19 -480255700#18 -480255700#17 -480255700#16 -480255700#15 -480255700#14 -480255700#13 480237234#0 480237234#1 488494811#3 488494811#4 488494811#5 488349631#0 488349631#1 488349631#2 488349631#3 488349631#4 488349631#5 488349631#6 488349631#7 155988280#7 155988280#8 155988280#9 155988280#10 155988280#11 155988280#12 155988281#6 155988281#7 155988281#8 155988281#0 480255686#0 480255686#1 480255686#2 480255686#3 488494818#0 488494818#1 115628455#6 115628455#7 115628455#8 115628455#0 115628455#1 115628455#2 153940693#0 153940693#1 153940693#2 153940693#3 153940693#4 -153941746#5 153941746#5 153940693#5 95187236#14 95187236#15 95187236#16 95187236#17 635944737#0 635944737#1 176155596#19 176155596#20 176155596#21 176155596#22 488345109#0 488345109#1 488345109#2 488345109#3 488345109#4 479822480#0 479822480#1 479821358#1 479821358#2 620934244#0 620934244#1 620934244#2 -479817734#0 60893886#0 60893886#1 60893886#2 60893886#3 60893886#4 60893886#5 60893886#6 206489306 488345107#3 488345107#4 488345107#5 488345107#6 488345107#7 206082716#0 206082716#1 206082716#2 206082716#3 206082716#4 206082716#5 206082716#6 206082716#7 206082716#8 206082782#0 206082782#1 206082782#2 -211954205#3 -211954205#2 -211954205#1 -211954205#0 -60893786#5 -60893786#4 -60893786#3 -60893786#2 -206486631 -206490002 -206489305#8 -206489305#7 -206489305#6 -206489305#5 -206489305#4 -206489305#3 -206489305#2 -206489305#1 -206489305#0 -211934806#4 -211934806#3 -211934806#2 -211934806#1 -211934806#0 -183786037#2 -183786037#1 -183786037#0 480285106#13 480285106#14 480285106#15 479822479#0 479822479#1 479822479#2 479822481#0 479822481#1 479822481#2 479822481#3 488345108#0 488345108#1 488345108#2 488345108#3 488345108#4 488345108#5 488345905 176155596#11 176155596#12 176155596#13 176155596#14 488509914#0 488509914#1 635944737#1 176155596#19 488509911#2 635944744 488509922 488345108#4 488345108#5 488345108#6 488345108#7 488338981#1 488338981#2 488338981#3 111424625#1 111424625#2 153940692#0 153940692#1 153940692#2 153940692#3 115628455#2 115628455#3 115628455#4 115628450#0 115628450#1 115628450#2 115628450#3 155988281#2 155988281#3 155988281#4 488351083#0 488351083#1 488351083#2 488351083#3 488351083#4 -488349631#8 -488349631#7 -488349631#6 -488349631#5 -488349631#4 -488349631#3 -488349631#2 -488349631#1 -488349631#0 -26007194#1 -26007194#0 480255700#10 480255700#11 480255700#12 480255700#13 480255700#14 480255700#15 480255700#16 480255700#17 480255700#18 480255700#19 480255700#20 621342676#0 480255687 480255690#7 480255690#8 480255690#9 480255690#10 480255690#11 480255690#12 488494820#0 488494820#1 117318941#0 479816304#0 479816304#1 479816304#2 153940278#0 153940278#1 153940278#2 153940278#3 153940278#4 153940278#5 153940278#6 -163699973 -160113901#1 -160113901#0 -154283673#4 -154283673#3 -154283673#2 -154283673#1 -154283673#0 105617959#1 133958421#4 133958421#5 133958421#6 133958421#7 187482429 187490896 187490898 492430461 158426520#0 158426520#1 158426520#2 158426520#3 492425087#0 492425087#1 492425087#2 158194864#0 158194864#1 158194877#0 158194877#1 158194877#2 158194877#3 162072480 188531097 188531099 162072483 25991592#0 25991592#1 25991592#2 158194977#0 158194977#1 158194867 158194879#0 158194879#1 158194879#2 158194879#3 158194879#4 158194879#5 158194879#6 158194879#7 158194879#8 158194814#0 158194814#1 158194814#2 158194814#3 158194814#4 158194814#5 131665143#0 131665143#1 131665143#2 131665143#3 131665143#4 131665143#5 131665143#6 131665143#7 131665143#8 -160113701#4 -160113701#3 -160113701#2 -160113701#1 -160113701#0 139105791#0 139105791#1 139105791#2 162723716#0 162723716#1 755033427 162723718#0 162723718#1 162723718#2 162723718#3 162723718#4 162723718#5 162657795 188266551 188266550 158194824#0 158194824#1 158194824#2 491190428 115738581#2 115738581#3 115738581#4 115738581#5 115738581#6 158194824#6 158194824#7 162657797 95475501 188147852 188147853#0 188147853#1 165487301#0 165487301#1" />

    <!-- <stop busStop="600" duration="30" />  class restriction-->
    <stop busStop="604" duration="30" until='10' />
    <stop busStop="602" duration="30" until='110' />
    <stop busStop="1508" duration="30" until='210' />
    <stop busStop="2610" duration="30" until='310' />
    <!-- <stop busStop="2516" duration="30" /> class restriction -->
    <stop busStop="2532" duration="30" until='410' />
    <stop busStop="2536" duration="30" until='510' />
    <stop busStop="4140" duration="30" until='610' />
    <stop busStop="4544" duration="30" until='710' />
    <stop busStop="4548" duration="30" until='810' />
    <stop busStop="4552" duration="30" until='910' />
    <stop busStop="4556" duration="30" until='1010' />
    <stop busStop="4560" duration="30" until='1110' />
    <stop busStop="4564" duration="30" until='1210' />
    <stop busStop="4572" duration="30" until='1310' />
    <stop busStop="4576" duration="30" until='1410' />
    <stop busStop="4580" duration="30" until='1510' />
    <stop busStop="4584" duration="30" until='1610' />
    <stop busStop="4588" duration="30" until='1710' />
    <stop busStop="4700" duration="30" until='1810' />
    <stop busStop="4704" duration="30" until='1910' />
    <stop busStop="4722" duration="30" until='2010' />
    <stop busStop="4730" duration="30" until='2110' />
    <stop busStop="4734" duration="30" until='2210' />
    <stop busStop="4738" duration="30" until='2310' />
    <stop busStop="4742" duration="30" until='2410' />
    <stop busStop="4746" duration="30" until='2510' />
    <stop busStop="4750" duration="30" until='2610' />
    <stop busStop="4754" duration="30" until='2710' />
    <stop busStop="4701" duration="30" until='2810' />
    <stop busStop="46669" duration="30" until='2910' />
    <stop busStop="44467" duration="30" until='3010' />
    <stop busStop="4589" duration="30" until='3110' />
    <stop busStop="4585" duration="30" until='3210' />
    <stop busStop="4581" duration="30" until='3310' />
    <stop busStop="4577" duration="30" until='3410' />
    <stop busStop="4573" duration="30" until='3510' />
    <stop busStop="4565" duration="30" until='3610' />
    <stop busStop="4561" duration="30" until='3710' />
    <stop busStop="4557" duration="30" until='3810' />
    <stop busStop="4553" duration="30" until='3910' />
    <stop busStop="4549" duration="30" until='4010' />
    <stop busStop="4545" duration="30" until='4110' />
    <stop busStop="4241" duration="30" until='4210' />
    <stop busStop="2637" duration="30" until='4310' />
    <stop busStop="2633" duration="30" until='4410' />
    <stop busStop="2617" duration="30" until='4510' />
    <stop busStop="2711" duration="30" until='4610' />
    <stop busStop="1609" duration="30" until='4710' />
    <stop busStop="601" duration="30" until='4810' />
    <!-- <stop busStop="999" duration="30" until='4810' /> -->
  </flow>
  <personFlow id="person_0" begin="0" end="9000" period="30">
    <walk from="-475904383#1" to="158194879#8" />
    <personTrip from="158194879#8" to="-160113701#0" modes="public" />
    <walk from="-160113701#0" to="160113983#3" />
  </personFlow>
  <personFlow id="person_1" begin="0" end="9000" period="30">
    <walk from="322569102#0" to="620934244#2" />
    <personTrip from="620934244#2" to="480285106#13" modes="public" />
    <walk from="480285106#13" to="645980570" />
  </personFlow>
  <personFlow id="person_3" begin="0" end="9000" period="30">
    <walk from="480241826" to="153940692#3" />
    <personTrip from="153940692#3" to="158194880#2" modes="public" />
    <walk from="158194880#2" to="475896372" />
  </personFlow>
  <personFlow id="person_4" begin="0" end="9000" period="30">
    <walk from="319107931" to="620934244#2" />
    <personTrip from="620934244#2" to="-206486631" modes="public" />
    <walk from="-206486631" to="527621253" />
  </personFlow>
  <personFlow id="person_5" begin="0" end="9000" period="30">
    <walk from="474929513#0" to="-488349631#1" />
    <personTrip from="-488349631#1" to="158194880#2" modes="public" />
    <walk from="158194880#2" to="190323560" />
  </personFlow>
  <personFlow id="person_6" begin="0" end="9000" period="30">
    <walk from="323441907" to="-60893786#5" />
    <personTrip from="-60893786#5" to="206082716#5" modes="public" />
    <walk from="206082716#5" to="323441910#1" />
  </personFlow>
  <personFlow id="person_7" begin="0" end="9000" period="30">
    <walk from="26004206#1" to="206082716#5" />
    <personTrip from="206082716#5" to="158194880#2" modes="public" />
    <walk from="158194880#2" to="624460401" />
  </personFlow>
  <personFlow id="person_8" begin="0" end="9000" period="30">
    <walk from="153988428#0" to="-160113701#0" />
    <personTrip from="-160113701#0" to="206082716#5" modes="public" />
    <walk from="206082716#5" to="-26007341#0" />
  </personFlow>
  <personFlow id="person_11" begin="0" end="9000" period="30">
    <walk from="-479822120#0" to="-206486631" />
    <personTrip from="-206486631" to="206082716#5" modes="public" />
    <walk from="206082716#5" to="-25921077#3" />
  </personFlow>
  <personFlow id="person_12" begin="0" end="9000" period="30">
    <walk from="25920917#3" to="158194880#2" />
    <personTrip from="158194880#2" to="158194880#2" modes="public" />
    <walk from="158194880#2" to="244666289#0" />
  </personFlow>
  <personFlow id="person_13" begin="0" end="9000" period="30">
    <walk from="319107931" to="620934244#2" />
    <personTrip from="620934244#2" to="206082716#5" modes="public" />
    <walk from="206082716#5" to="323441922#3" />
  </personFlow>
  <personFlow id="person_14" begin="0" end="9000" period="30">
    <walk from="524110886#2" to="158194880#2" />
    <personTrip from="158194880#2" to="-206486631" modes="public" />
    <walk from="-206486631" to="667927130#0" />
  </personFlow>
  <trip id="0" depart="0.00" from="25948306#4" to="-256331690#0"/>
  <trip id="1" depart="1.00" from="322569114#2" to="111424615#13"/>
  <trip id="2" depart="2.00" from="289048880#1" to="187482407"/>
  <trip id="3" depart="3.00" from="-26002795#17" to="95186730#5"/>
  <trip id="4" depart="4.00" from="139260415#1" to="158194857#1"/>
  <trip id="5" depart="5.00" from="111424615#15" to="60893972#12"/>
  <trip id="6" depart="6.00" from="25952883#3" to="206488410#3"/>
  <trip id="7" depart="7.00" from="-25982416#1" to="-475172071"/>
  <trip id="8" depart="8.00" from="479821355#1" to="323437956#0"/>
  <trip id="9" depart="9.00" from="206076849#1" to="154282618#0"/>
  <trip id="10" depart="10.00" from="158194834#1" to="309758674#1"/>
  <trip id="11" depart="11.00" from="-474924933#0" to="25938148#1"/>
   <!-- <trip id="12" depart="12.00" from="26007081#0" to="223152632#4"/> commented -->
  <trip id="13" depart="13.00" from="60893786#1" to="162179013#5"/>
  <trip id="14" depart="14.00" from="322569106#2" to="-107826178#1"/>
  <trip id="15" depart="15.00" from="-480255700#19" to="25952855#1"/>
  <trip id="16" depart="16.00" from="479761715#1" to="-491433246#4"/>
  <trip id="17" depart="17.00" from="-25938241#0" to="165309584#1"/>
  <trip id="18" depart="18.00" from="165494947#2" to="-162593221#2"/>
  <trip id="19" depart="19.00" from="176155596#10" to="-26003901#1"/>
  <trip id="20" depart="20.00" from="-26003800#2" to="250878764"/>
  <trip id="21" depart="21.00" from="158194857#6" to="212665543#2"/>
  <trip id="22" depart="22.00" from="-60893972#4" to="-26003746"/>
  <trip id="23" depart="23.00" from="621549825#2" to="485012172"/>
  <trip id="24" depart="24.00" from="620959399#1" to="139260414#4"/>
  <trip id="25" depart="25.00" from="475172128#1" to="-26007280#2"/>
  <trip id="26" depart="26.00" from="-158194850#2" to="-474924862#2"/>
  <trip id="27" depart="27.00" from="183786061#4" to="-475908281#0"/>
  <trip id="28" depart="28.00" from="-323437956#3" to="153941693#3"/>
  <trip id="29" depart="29.00" from="26009028#2" to="223152632#1"/>
  <trip id="30" depart="30.00" from="165499568#3" to="158195060"/>
  <trip id="31" depart="31.00" from="190323586#1" to="361648463#1"/>
  <trip id="32" depart="32.00" from="-196178892#0" to="187490898"/>
  <trip id="33" depart="33.00" from="-153192100#1" to="-165499604#6"/>
  <trip id="34" depart="34.00" from="-25938245#2" to="-139256260#0"/>
  <trip id="35" depart="35.00" from="154289125" to="474924916#0"/>
  <trip id="36" depart="36.00" from="111614700#0" to="-26006751#0"/>
  <trip id="37" depart="37.00" from="-26002749#4" to="487493371#0"/>
  <trip id="38" depart="38.00" from="-487493371#3" to="162074392#2"/>
  <trip id="39" depart="39.00" from="206489446#1" to="26007244#1"/>
  <trip id="40" depart="40.00" from="235084926#0" to="-322569117#2"/>
  <trip id="41" depart="41.00" from="206080385" to="-479804679#0"/>
  <trip id="42" depart="42.00" from="491449152#1" to="280533690#5"/>
  <trip id="43" depart="43.00" from="-165494947#8" to="306438459#1"/>
  <trip id="44" depart="44.00" from="135416305#13" to="754143918#4"/>
  <trip id="45" depart="45.00" from="-491433246#0" to="162590968#2"/>
  <trip id="46" depart="46.00" from="-111614700#0" to="232147904"/>
  <trip id="47" depart="47.00" from="26003889#3" to="-26003793#4"/>
  <trip id="48" depart="48.00" from="-158194845#3" to="-25938255#2"/>
  <trip id="49" depart="49.00" from="-153924046#0" to="-280533688#0"/>
  <trip id="50" depart="50.00" from="-234388984#3" to="206490006#0"/>
  <trip id="51" depart="51.00" from="623161626#1" to="183786061#2"/>
  <trip id="52" depart="52.00" from="-26003808#3" to="120681354#3"/>
  <trip id="53" depart="53.00" from="-246113963#1" to="621549830#0"/>
  <trip id="54" depart="54.00" from="165483425#2" to="485024710#12"/>
  <trip id="55" depart="55.00" from="-162074422#4" to="112597858#8"/>
  <trip id="56" depart="56.00" from="-162178734" to="107688183#3"/>
  <trip id="57" depart="57.00" from="-206082792#6" to="474924845"/>
  <trip id="58" depart="58.00" from="-26009235#7" to="166194495"/>
  <trip id="59" depart="59.00" from="163696517#3" to="483235838#4"/>
  <trip id="60" depart="60.00" from="121831283#0" to="492022532#1"/>
  <trip id="61" depart="61.00" from="25982385#0" to="206488920#0"/>
  <trip id="62" depart="62.00" from="623960882#1" to="-157076220#7"/>
  <trip id="63" depart="63.00" from="60893886#2" to="26007058#1"/>
  <trip id="64" depart="64.00" from="-25952854" to="165499569#0"/>
  <trip id="65" depart="65.00" from="489917843#1" to="-212665389"/>
  <trip id="66" depart="66.00" from="-25938261#0" to="-479817734#1"/>
  <trip id="67" depart="67.00" from="479804685#1" to="211934806#0"/>
  <trip id="68" depart="68.00" from="25952888#0" to="322569125"/>
  <trip id="69" depart="69.00" from="-26009417#4" to="95475506#1"/>
  <trip id="70" depart="70.00" from="-250878785#2" to="480237241"/>
  <trip id="71" depart="71.00" from="-106547503#7" to="95186788#1"/>
  <trip id="72" depart="72.00" from="153941717#1" to="250878767#16"/>
  <trip id="73" depart="73.00" from="162590968#3" to="157076224"/>
  <trip id="74" depart="74.00" from="518281368#0" to="211935405#1"/>
  <trip id="75" depart="75.00" from="220599954#0" to="-150124008#3"/>
  <trip id="76" depart="76.00" from="-620959382#0" to="25982292#0"/>
  <trip id="77" depart="77.00" from="479613507#2" to="-250878487"/>
  <trip id="78" depart="78.00" from="479747968#6" to="623957345"/>
  <trip id="79" depart="79.00" from="153920675#4" to="-153941746#6"/>
  <trip id="80" depart="80.00" from="-162178747" to="488343779#0"/>
  <trip id="81" depart="81.00" from="479778839#2" to="488349631#4"/>
  <trip id="82" depart="82.00" from="162657799" to="105617964#2"/>
  <trip id="83" depart="83.00" from="211935405#1" to="154036843#1"/>
  <trip id="84" depart="84.00" from="-206490006#1" to="322569130#0"/>
  <trip id="85" depart="85.00" from="-165499604#0" to="105617964#3"/>
  <trip id="86" depart="86.00" from="479819929#0" to="212664962#0"/>
  <trip id="87" depart="87.00" from="26009317#1" to="234545619"/>
  <trip id="88" depart="88.00" from="165494944#0" to="-95475500#0"/>
  <trip id="89" depart="89.00" from="207636495#1" to="479819936"/>
  <trip id="90" depart="90.00" from="88243585#1" to="658633114"/>
  <trip id="91" depart="91.00" from="-153232570#0" to="95475528#2"/>
  <trip id="92" depart="92.00" from="-123375130#1" to="207635218#1"/>
  <trip id="93" depart="93.00" from="26003799#2" to="360762230"/>
  <trip id="94" depart="94.00" from="60893793#16" to="491649459"/>
  <trip id="95" depart="95.00" from="620959394#4" to="26003749#3"/>
  <trip id="96" depart="96.00" from="-160113856" to="-474924894#0"/>
  <trip id="97" depart="97.00" from="95475521#0" to="-491433246#2"/>
  <trip id="98" depart="98.00" from="-485000442#7" to="-475896392"/>
  <trip id="99" depart="99.00" from="488343783#4" to="-25952799"/>
  <trip id="100" depart="100.00" from="488556732" to="-479816307"/>
  <trip id="101" depart="101.00" from="-26002906#0" to="26006922#5"/>
  <trip id="102" depart="102.00" from="-475172112#0" to="-486666560#1"/>
  <trip id="103" depart="103.00" from="312891540#0" to="158194940#0"/>
  <trip id="104" depart="104.00" from="-25991693#2" to="619575610"/>
  <trip id="105" depart="105.00" from="188147846#3" to="489938081"/>
  <trip id="106" depart="106.00" from="-26006922#1" to="25991820#0"/>
  <trip id="107" depart="107.00" from="479761724#1" to="-480237250#1"/>
  <trip id="108" depart="108.00" from="217977633" to="479613504#1"/>
  <trip id="109" depart="109.00" from="153977757" to="-26006820#0"/>
 <!-- <trip id="110" depart="110.00" from="188272194" to="-620959401#3"/> commented -->
  <trip id="111" depart="111.00" from="26002837#0" to="-26002834#0"/>
  <trip id="112" depart="112.00" from="-123375134#0" to="60893830#9"/>
  <trip id="113" depart="113.00" from="-196181044" to="475172128#0"/>
  <trip id="114" depart="114.00" from="-474924878#0" to="26002502#2"/>
  <trip id="115" depart="115.00" from="153922132#1" to="475896380"/>
  <trip id="116" depart="116.00" from="160114044#0" to="107826177#2"/>
  <trip id="117" depart="117.00" from="-165287967#2" to="25921077#2"/>
  <trip id="118" depart="118.00" from="165287971#6" to="119157742#2"/>
  <trip id="119" depart="119.00" from="234388582" to="217977506#7"/>
  <trip id="120" depart="120.00" from="26003805#4" to="-26002795#9"/>
  <trip id="121" depart="121.00" from="474924918#0" to="-26007063#4"/>
  <trip id="122" depart="122.00" from="190323581#4" to="-25952846#1"/>
  <trip id="123" depart="123.00" from="-479814219#3" to="187987863"/>
  <trip id="124" depart="124.00" from="188535741" to="220599852#0"/>
  <trip id="125" depart="125.00" from="155991128" to="620959399#0"/>
  <trip id="126" depart="126.00" from="488505716#2" to="480293783"/>
  <trip id="127" depart="127.00" from="155991125#0" to="26008936#2"/>
  <trip id="128" depart="128.00" from="25938279#1" to="479816306"/>
  <trip id="129" depart="129.00" from="-155988290#8" to="-26007020#1"/>
  <trip id="130" depart="130.00" from="-620977453" to="165440045#12"/>
  <trip id="131" depart="131.00" from="162178924#0" to="-165494947#3"/>
  <trip id="132" depart="132.00" from="485361444" to="485371533"/>
  <trip id="133" depart="133.00" from="95475511#0" to="206488408#0"/>
  <trip id="134" depart="134.00" from="474924932#1" to="60893833#1"/>
  <trip id="135" depart="135.00" from="-26002801#0" to="479598719#0"/>
  <trip id="136" depart="136.00" from="-753816557#0" to="26002789#2"/>
  <trip id="137" depart="137.00" from="322569153#0" to="165499579#1"/>
  <trip id="138" depart="138.00" from="207635217" to="153192073"/>
  <trip id="139" depart="139.00" from="26002834#0" to="-26006832"/>
  <trip id="140" depart="140.00" from="-25991637#10" to="-26003808#1"/>
  <trip id="141" depart="141.00" from="26008990#3" to="485181597#0"/>
  <trip id="142" depart="142.00" from="25952747#3" to="273601430#3"/>
  <trip id="143" depart="143.00" from="322569108#1" to="250878767#10"/>
  <trip id="144" depart="144.00" from="25952747#2" to="490198550#1"/>
  <trip id="145" depart="145.00" from="-165287955#5" to="106398107"/>
  <trip id="146" depart="146.00" from="491646155#1" to="474924870#0"/>
  <trip id="147" depart="147.00" from="-25991709#5" to="26007291#2"/>
  <trip id="148" depart="148.00" from="-26007036#3" to="480231812#2"/>
  <trip id="149" depart="149.00" from="-26009247#3" to="154127584#2"/>
  <trip id="150" depart="150.00" from="-479807510#0" to="165440025#0"/>
  <trip id="151" depart="151.00" from="-486612552#0" to="257978557#1"/>
  <trip id="152" depart="152.00" from="-158748998#0" to="479598686#1"/>
  <trip id="153" depart="153.00" from="-112597858#1" to="-206486628#2"/>
  <trip id="154" depart="154.00" from="-25938241#2" to="-153941746#4"/>
  <trip id="155" depart="155.00" from="-188272179#4" to="-26006882#0"/>
  <trip id="156" depart="156.00" from="-219401228#3" to="153922132#1"/>
  <trip id="157" depart="157.00" from="-137336302#1" to="-479804675"/>
  <trip id="158" depart="158.00" from="-474924915#1" to="-131665146#1"/>
  <trip id="159" depart="159.00" from="25952883#1" to="26003800#5"/>
  <trip id="160" depart="160.00" from="-475172071" to="25921037#6"/>
  <trip id="161" depart="161.00" from="-753816558#0" to="-475172065#1"/>
  <trip id="162" depart="162.00" from="480285106#3" to="106547503#6"/>
  <trip id="163" depart="163.00" from="10852734#13" to="153924034"/>
  <trip id="164" depart="164.00" from="659827684" to="-485357045#0"/>
  <trip id="165" depart="165.00" from="121831283#2" to="133952625#0"/>
  <trip id="166" depart="166.00" from="-105590433#1" to="306438337#2"/>
  <trip id="167" depart="167.00" from="490198553#5" to="160113798#0"/>
  <trip id="168" depart="168.00" from="-479807294#0" to="-160113856"/>
  <trip id="169" depart="169.00" from="485024710#10" to="479761726"/>
  <trip id="170" depart="170.00" from="309758662#2" to="-491433246#1"/>
  <trip id="171" depart="171.00" from="-106398084" to="-486634276"/>
  <trip id="172" depart="172.00" from="474924917#1" to="190323544#1"/>
  <trip id="173" depart="173.00" from="-25991637#5" to="-26002700#3"/>
  <trip id="174" depart="174.00" from="88243466#1" to="25920915#2"/>
  <trip id="175" depart="175.00" from="165287968#3" to="-154084385#0"/>
  <trip id="176" depart="176.00" from="361644084" to="-26006846#2"/>
  <trip id="177" depart="177.00" from="196181503" to="492169609#0"/>
  <trip id="178" depart="178.00" from="694985024#0" to="-158194879#5"/>
  <trip id="179" depart="179.00" from="-322569117#0" to="156617154#6"/>
  <trip id="180" depart="180.00" from="-487493371#3" to="-165483425#0"/>
  <trip id="181" depart="181.00" from="187482451" to="479807524#1"/>
  <trip id="182" depart="182.00" from="527617954" to="-111424657#1"/>
  <trip id="183" depart="183.00" from="492402220" to="25982436#1"/>
  <trip id="184" depart="184.00" from="322569101#2" to="26003916#6"/>
  <trip id="185" depart="185.00" from="621549828#2" to="488560421"/>
  <trip id="186" depart="186.00" from="246113963#1" to="361648967#1"/>
  <trip id="187" depart="187.00" from="133952625#5" to="153941757#4"/>
  <trip id="188" depart="188.00" from="696972951" to="-491433246#1"/>
  <trip id="189" depart="189.00" from="95475520#1" to="-196181059#1"/>
  <trip id="190" depart="190.00" from="-211935834#5" to="-481526492#1"/>
  <trip id="191" depart="191.00" from="153941700" to="479816318#1"/>
  <trip id="192" depart="192.00" from="620980979#0" to="479761712#1"/>
  <trip id="193" depart="193.00" from="-26002551#4" to="188405512"/>
  <trip id="194" depart="194.00" from="-26003808#1" to="466370573#1"/>
  <trip id="195" depart="195.00" from="154084382#0" to="-25982426#0"/>
  <trip id="196" depart="196.00" from="-475896423" to="95187236#16"/>
  <trip id="197" depart="197.00" from="154111590" to="-60893793#6"/>
  <trip id="198" depart="198.00" from="87826059#3" to="479807652"/>
  <trip id="199" depart="199.00" from="491646154" to="479822281#0"/>
  <trip id="200" depart="200.00" from="25952818#4" to="26007217#4"/>
  <trip id="201" depart="201.00" from="153920675#0" to="-25938141"/>
  <trip id="202" depart="202.00" from="246112929" to="-60893807#0"/>
  <trip id="203" depart="203.00" from="527671362" to="106398090#0"/>
  <trip id="204" depart="204.00" from="-480237223" to="25991657#2"/>
  <trip id="205" depart="205.00" from="-26003805#0" to="479817734#1"/>
  <trip id="206" depart="206.00" from="-60893972#8" to="480272825"/>
  <trip id="207" depart="207.00" from="95475530#4" to="-250878488#1"/>
  <trip id="208" depart="208.00" from="-115734549#1" to="-211935360#1"/>
  <trip id="209" depart="209.00" from="475896407#0" to="206082792#6"/>
  <trip id="210" depart="210.00" from="-115734550#1" to="-250878550#1"/>
  <trip id="211" depart="211.00" from="-196181061#2" to="-475172094#1"/>
  <trip id="212" depart="212.00" from="-620959394#0" to="-25982314#1"/>
  <trip id="213" depart="213.00" from="-235084921#0" to="-26002772#1"/>
  <trip id="214" depart="214.00" from="-26002795#10" to="-60893972#12"/>
  <trip id="215" depart="215.00" from="-475172096" to="474929506#3"/>
  <trip id="216" depart="216.00" from="25921037#0" to="-474924842#2"/>
  <trip id="217" depart="217.00" from="160113737#11" to="479598687"/>
  <trip id="218" depart="218.00" from="484783222" to="620959392"/>
  <trip id="219" depart="219.00" from="-26009349#4" to="-620980979#1"/>
  <trip id="220" depart="220.00" from="-320749009#0" to="-619566311"/>
  <trip id="221" depart="221.00" from="153941697#1" to="-25938165#5"/>
  <trip id="222" depart="222.00" from="-483103984" to="110860256#3"/>
  <trip id="223" depart="223.00" from="-105701734#0" to="-162179013#5"/>
  <trip id="224" depart="224.00" from="-206489446#5" to="138083893#0"/>
  <trip id="225" depart="225.00" from="623196729#0" to="479598692"/>
  <trip id="226" depart="226.00" from="119157742#0" to="-322569101#0"/>
  <trip id="227" depart="227.00" from="-25991630#4" to="-26007047#0"/>
  <trip id="228" depart="228.00" from="492022533" to="26008794#1"/>
  <trip id="229" depart="229.00" from="-114105260#2" to="-162178731"/>
  <trip id="230" depart="230.00" from="492425097" to="521092734"/>
  <trip id="231" depart="231.00" from="206490005#1" to="-60893793#15"/>
  <trip id="232" depart="232.00" from="25991787#1" to="206488407#0"/>
  <trip id="233" depart="233.00" from="158426114#0" to="280533738"/>
  <trip id="234" depart="234.00" from="156617174#0" to="123375134#0"/>
  <trip id="235" depart="235.00" from="-474924842#2" to="155988289#1"/>
  <trip id="236" depart="236.00" from="-475904382" to="479813172"/>
  <trip id="237" depart="237.00" from="474929480#1" to="-235085635#2"/>
  <trip id="238" depart="238.00" from="-206489305#4" to="206479955#1"/>
  <trip id="239" depart="239.00" from="26002749#2" to="-480255688#3"/>
  <trip id="240" depart="240.00" from="-25921077#0" to="-25952801"/>
  <trip id="241" depart="241.00" from="492430452#5" to="25991526"/>
  <trip id="242" depart="242.00" from="44037605#1" to="-479822095#0"/>
  <trip id="243" depart="243.00" from="479807517" to="-474924936#2"/>
  <trip id="244" depart="244.00" from="-26006820#2" to="25920891#0"/>
  <trip id="245" depart="245.00" from="-479822101#2" to="-479807648#3"/>
  <trip id="246" depart="246.00" from="188147863" to="480231808"/>
  <trip id="247" depart="247.00" from="-475170253#1" to="234388984#0"/>
  <trip id="248" depart="248.00" from="479807526#2" to="256634794"/>
  <trip id="249" depart="249.00" from="190323544#1" to="-25952909"/>
  <trip id="250" depart="250.00" from="475112474" to="491423243#4"/>
  <trip id="251" depart="251.00" from="479819947#0" to="26002749#2"/>
  <trip id="252" depart="252.00" from="156617182#8" to="-256634816#3"/>
  <trip id="253" depart="253.00" from="160113983#2" to="479819943#6"/>
  <trip id="254" depart="254.00" from="-322569125" to="154127601"/>
  <trip id="255" depart="255.00" from="25938261#2" to="-671705405#1"/>
  <trip id="256" depart="256.00" from="-153750490#1" to="-26002695#0"/>
  <trip id="257" depart="257.00" from="-153192075" to="111738507"/>