<?xml version="1.0" encoding="UTF-8"?>

<!-- generated on 02/14/20 21:13:44 by Eclipse SUMO duarouter Version 1.3.1
<configuration xmlns:xsi="http://www.w3.org/2001/XMLSchema-instance" xsi:noNamespaceSchemaLocation="http://sumo.dlr.de/xsd/duarouterConfiguration.xsd">

<input>
<net-file value="../maps/qatar_bus.net.xml"/>
<additional-files value="additional.xml"/>
<route-files value="route.routes.xml"/>
</input>

<output>
<output-file value="repaired.routes.xml"/>
<alternatives-output value="repaired.routes.alt.xml"/>
</output>

<processing>
<repair value="true"/>
<ptline-routing value="true"/>
</processing>

<time>
<end value="100"/>
</time>

<report>
<verbose value="true"/>
<ignore-errors value="true"/>
</report>
10 - 11 - 22 - 31
</configuration>
-->

<routes xmlns:xsi="http://www.w3.org/2001/XMLSchema-instance" xsi:noNamespaceSchemaLocation="http://sumo.dlr.de/xsd/routes_file.xsd">
  <vType id="bus" length="12.00" minGap="3.00" maxSpeed="70.00" vClass="bus" guiShape="bus" color="yellow" personCapacity="25" accel="2.6" decel="4.5" sigma="0"/>
  <!-- bus trips -->
  <flow id="110" type="bus" begin="0" end="7200" period="7300" color="yellow" line="110">
    <route edges="158194880#1 158194912 158195022 58974277 58974276#0 58974276#1 58974276#2 659833033 492229540#1 492229540#2 491706848 95475498#5 158426437#0 158426437#1 158426437#2 158748997 158748998#0 -235084921#1 -235084921#0 -235084920#1 235084923#0 685225992 188147840#5 188147840#6 188147840#7 158426437#2 158426437#3 158426437#4 158426437#5 158426437#6 158426437#7 158426437#0 95475538#0 95475538#1 95475538#2 154054008#0 154054008#1 162657808 188147868 188147860 188147849#0 188147849#1 188147849#2 111614727#0 111614727#1 158426573 158426195#0 158426195#1 158426210#0 158426210#1 165499564 162657796 188266548 188266552 158194834#0 158194834#1 158194834#2 158194834#3 158194834#4 158194834#5 160114050 160113713 160113701#0 160113701#1 160113701#2 160113701#3 160113701#4 131665143#9 131665144 160114121 160113720#0 160113720#1 160113720#2 -158194814#5 -158194814#4 -158194814#3 -158194814#2 -158194814#1 -158194814#0 -158194879#8 -158194879#7 -158194879#6 -158194879#5 158194879#5 -158194879#5 -158194879#4 -158194879#3 -158194879#2 -158194879#1 -158194879#0 158194868 160113987 158426734 25991598#0 25991598#1 25991598#2 162072481 188531101 188531095 162072482 158426507#0 158426507#1 160113769#0 160113769#1 160113769#2 25948293#0 25948293#1 25948293#2 492425109#0 492425109#1 492425109#2 492426170 163699996 187482447 188822636 187482402#0 187482402#1 187482402#2 95186908 106475733#0 106475733#1 106475733#2 160113901#0 479816301 163699970#3 133618455#0 154283671#1 154283671#2 154283671#3 154283671#4 154283671#5 154283671#6 154283671#7 -105617962#5 -105617962#4 -105617962#3 -105617962#2 -105617962#1 105617962#1 105617962#2 105617962#3 105617962#4 105617962#5 154283671#8 154283671#9 105617964#0 105617964#1 105617964#2 105617964#3 115628470#1 115628470#2 488494821#0 488494821#1 488494821#2 488494821#3 488494821#4 488494821#5 621342675#0 621342675#1 621342675#2 -480255700#20 -480255700#19 -480255700#18 -480255700#17 -480255700#16 -480255700#15 -480255700#14 -480255700#13 480237234#0 480237234#1 488494811#3 488494811#4 488494811#5 488349631#0 488349631#1 488349631#2 488349631#3 488349631#4 488349631#5 488349631#6 488349631#7 155988280#7 155988280#8 155988280#9 155988280#10 155988280#11 155988280#12 155988281#6 155988281#7 155988281#8 155988281#0 480255686#0 480255686#1 480255686#2 480255686#3 488494818#0 488494818#1 115628455#6 115628455#7 115628455#8 115628455#0 115628455#1 115628455#2 153940693#0 153940693#1 153940693#2 153940693#3 153940693#4 -153941746#5 153941746#5 153940693#5 95187236#14 95187236#15 95187236#16 95187236#17 635944737#0 635944737#1 176155596#19 176155596#20 176155596#21 176155596#22 488345109#0 488345109#1 488345109#2 488345109#3 488345109#4 479822480#0 479822480#1 479821358#1 479821358#2 620934244#0 620934244#1 620934244#2 -479817734#0 60893886#0 60893886#1 60893886#2 60893886#3 60893886#4 60893886#5 60893886#6 206489306 488345107#3 488345107#4 488345107#5 488345107#6 488345107#7 206082716#0 206082716#1 206082716#2 206082716#3 206082716#4 206082716#5 206082716#6 206082716#7 206082716#8 206082782#0 206082782#1 206082782#2 -211954205#3 -211954205#2 -211954205#1 -211954205#0 -60893786#5 -60893786#4 -60893786#3 -60893786#2 -206486631 -206490002 -206489305#8 -206489305#7 -206489305#6 -206489305#5 -206489305#4 -206489305#3 -206489305#2 -206489305#1 -206489305#0 -211934806#4 -211934806#3 -211934806#2 -211934806#1 -211934806#0 -183786037#2 -183786037#1 -183786037#0 480285106#13 480285106#14 480285106#15 479822479#0 479822479#1 479822479#2 479822481#0 479822481#1 479822481#2 479822481#3 488345108#0 488345108#1 488345108#2 488345108#3 488345108#4 488345108#5 488345905 176155596#11 176155596#12 176155596#13 176155596#14 488509914#0 488509914#1 635944737#1 176155596#19 488509911#2 635944744 488509922 488345108#4 488345108#5 488345108#6 488345108#7 488338981#1 488338981#2 488338981#3 111424625#1 111424625#2 153940692#0 153940692#1 153940692#2 153940692#3 115628455#2 115628455#3 115628455#4 115628450#0 115628450#1 115628450#2 115628450#3 155988281#2 155988281#3 155988281#4 488351083#0 488351083#1 488351083#2 488351083#3 488351083#4 -488349631#8 -488349631#7 -488349631#6 -488349631#5 -488349631#4 -488349631#3 -488349631#2 -488349631#1 -488349631#0 -26007194#1 -26007194#0 480255700#10 480255700#11 480255700#12 480255700#13 480255700#14 480255700#15 480255700#16 480255700#17 480255700#18 480255700#19 480255700#20 621342676#0 480255687 480255690#7 480255690#8 480255690#9 480255690#10 480255690#11 480255690#12 488494820#0 488494820#1 117318941#0 479816304#0 479816304#1 479816304#2 153940278#0 153940278#1 153940278#2 153940278#3 153940278#4 153940278#5 153940278#6 -163699973 -160113901#1 -160113901#0 -154283673#4 -154283673#3 -154283673#2 -154283673#1 -154283673#0 105617959#1 133958421#4 133958421#5 133958421#6 133958421#7 187482429 187490896 187490898 492430461 158426520#0 158426520#1 158426520#2 158426520#3 492425087#0 492425087#1 492425087#2 158194864#0 158194864#1 158194877#0 158194877#1 158194877#2 158194877#3 162072480 188531097 188531099 162072483 25991592#0 25991592#1 25991592#2 158194977#0 158194977#1 158194867 158194879#0 158194879#1 158194879#2 158194879#3 158194879#4 158194879#5 158194879#6 158194879#7 158194879#8 158194814#0 158194814#1 158194814#2 158194814#3 158194814#4 158194814#5 131665143#0 131665143#1 131665143#2 131665143#3 131665143#4 131665143#5 131665143#6 131665143#7 131665143#8 -160113701#4 -160113701#3 -160113701#2 -160113701#1 -160113701#0 139105791#0 139105791#1 139105791#2 162723716#0 162723716#1 755033427 162723718#0 162723718#1 162723718#2 162723718#3 162723718#4 162723718#5 162657795 188266551 188266550 158194824#0 158194824#1 158194824#2 491190428 115738581#2 115738581#3 115738581#4 115738581#5 115738581#6 158194824#6 158194824#7 162657797 95475501 188147852 188147853#0 188147853#1 165487301#0 165487301#1 480996742#1 622905043#0 -160113690#3 -160113690#2 -160113690#1 -160113690#0 -158194912 158194880#2"/>
    <stop busStop="600" duration="10.00" until="10.00"/>
    <stop busStop="604" duration="10.00" until="110.00"/>
    <stop busStop="602" duration="10.00" until="210.00"/>
    <stop busStop="1508" duration="10.00" until="310.00"/>
    <stop busStop="2610" duration="10.00" until="410.00"/>
    <stop busStop="2516" duration="10.00" until="510.00"/>
    <stop busStop="2532" duration="10.00" until="610.00"/>
    <stop busStop="2536" duration="10.00" until="710.00"/>
    <stop busStop="4140" duration="10.00" until="810.00"/>
    <stop busStop="4544" duration="10.00" until="910.00"/>
    <stop busStop="4548" duration="10.00" until="1010.00"/>
    <stop busStop="4552" duration="10.00" until="1110.00"/>
    <stop busStop="4556" duration="10.00" until="1210.00"/>
    <stop busStop="4560" duration="10.00" until="1310.00"/>
    <stop busStop="4564" duration="10.00" until="1410.00"/>
    <stop busStop="4572" duration="10.00" until="1510.00"/>
    <stop busStop="4576" duration="10.00" until="1610.00"/>
    <stop busStop="4580" duration="10.00" until="1710.00"/>
    <stop busStop="4584" duration="10.00" until="1810.00"/>
    <stop busStop="4588" duration="10.00" until="1910.00"/>
    <stop busStop="4700" duration="10.00" until="2010.00"/>
    <stop busStop="4704" duration="10.00" until="2110.00"/>
    <stop busStop="4722" duration="10.00" until="2210.00"/>
    <stop busStop="4730" duration="10.00" until="2310.00"/>
    <stop busStop="4734" duration="10.00" until="2410.00"/>
    <stop busStop="4738" duration="10.00" until="2510.00"/>
    <stop busStop="4742" duration="10.00" until="2610.00"/>
    <stop busStop="4746" duration="10.00" until="2710.00"/>
    <stop busStop="4750" duration="10.00" until="2810.00"/>
    <stop busStop="4754" duration="10.00" until="2910.00"/>
    <stop busStop="4701" duration="10.00" until="3010.00"/>
    <stop busStop="46669" duration="10.00" until="3110.00"/>
    <stop busStop="44467" duration="10.00" until="3210.00"/>
    <stop busStop="4589" duration="10.00" until="3310.00"/>
    <stop busStop="4585" duration="10.00" until="3410.00"/>
    <stop busStop="4581" duration="10.00" until="3510.00"/>
    <stop busStop="4577" duration="10.00" until="3610.00"/>
    <stop busStop="4573" duration="10.00" until="3710.00"/>
    <stop busStop="4565" duration="10.00" until="3810.00"/>
    <stop busStop="4561" duration="10.00" until="3910.00"/>
    <stop busStop="4557" duration="10.00" until="4010.00"/>
    <stop busStop="4553" duration="10.00" until="4110.00"/>
    <stop busStop="4549" duration="10.00" until="4210.00"/>
    <stop busStop="4545" duration="10.00" until="4310.00"/>
    <stop busStop="4241" duration="10.00" until="4410.00"/>
    <stop busStop="2637" duration="10.00" until="4510.00"/>
    <stop busStop="2633" duration="10.00" until="4610.00"/>
    <stop busStop="2617" duration="10.00" until="4710.00"/>
    <stop busStop="2711" duration="10.00" until="4810.00"/>
    <stop busStop="1609" duration="10.00" until="4910.00"/>
    <stop busStop="601" duration="10.00" until="5010.00"/>
    <stop busStop="999" duration="10.00" until="5110.00"/>
  </flow>
  <flow id="31020" type="bus" begin="0" end="7200" period="7300" color="yellow" line="31020">
    <route edges="-481979271#1 -481979271#0 255323867 177998712#7 177998712#8 177998712#0 177998712#1 480290160 -177998686#3 -177998686#2 -177998686#1 -177998686#0 741055113 741055115#5 741055111#0 741055111#1 177998674#0 -236193617#11 -236193617#10 -236193617#9 -236193617#8 -236193617#7 -236193617#6 -236193617#5 -236193617#4 -236193617#3 -236193617#2 -236193617#1 -236193617#0 236193615#14 236193615#15 480275015 236193091#5 236193091#6 236193091#7 236193091#8 236193091#0 236193091#1 480275019 -490718482#27 -490718482#26 -490718482#25 -490718482#24 -490718482#23 -490718482#22 -490718482#21 -490718482#20 -490718482#19 -490718482#18 -490718482#17 -490718482#16 -490718482#15 -490718482#14 -490718482#13 -490718482#12 -490718482#11 -490718482#10 -490718482#9 -490718482#8 -490718482#7 -490718482#6 -490718482#5 -490718482#4 -490718482#3 -490718482#2 -490718482#1 -490718482#0 236193090 235430045#7 235430045#8 235430045#0 235430045#1 235429860#0 235429860#1 235429860#2 490621447 -235429912#8 235429912#8 -235429912#8 -235429912#7 -235429912#6 25931697#0 25931697#1 25931697#2 25931697#3 25931697#4 25931700#1 25931700#2 255416197#0 255416197#1 255416197#2 255416197#3 490618082#2 -255416228#2 -255416228#1 -255416228#0 255416191 235429860#15 235436484#2 235436484#3 235436484#4 235436484#5 235436484#6 235436489#0 235436489#1 235436489#2 235436489#3 490200856 255416214 255416142#0 255416142#1 255416142#2 255416142#3 255416142#4 475316645#0 475316645#1 475316645#2 475316645#3 475316645#4 625452609#0 -475316658#0 235436483#2 235436483#3 235436483#4 490546661#0 658171207 491632370#10 491632370#11 491632370#12 491632370#13 491632370#14 491632370#15 491632370#16 490361702#0 490361702#1 490361702#2 490361702#3 490361702#4 490361702#5 490361702#6 235455101#4 235455101#5 235455101#6 235455107#0 235455107#1 622905388#0 622905388#1 697018122#10 697018122#11 697018122#12 697018122#13 697018122#14 697018122#15 492022521#0 492022521#1 492022521#2 25931908#4 25931908#5 25931908#6 25931908#7 623131062 25935365#1 25935365#2 25935365#3 696706385 696706384 25935387#0 25935387#1 25935387#2 25935387#3 25935387#4 25935387#5 25935387#6 489433999 691244840 691244837#0 691244837#1 489435506 489434005 658050381 140488317 140488318 140488313 747831962#0 747831962#1 747831962#2 747831960#0 747831960#1 747831959#0 747831959#1 747831959#2 123423114#0 123423114#1 123423114#2 747831961#0 747831961#1 747831961#2 747831961#3 159050454#0 159050454#1 159050454#2 747842170 289341429 490150115#0 490150115#1 490150094 187490889#0 187490889#1 187490889#2 187490889#3 187490889#4 159050455#0 159050455#1 159050455#2 623589692 95601628 623589691#0 111614805#0 111614805#1 111614805#2 111614805#3 111614805#4 111614805#5 489632180#0 107195551 95475542#0 95475542#1 95475542#2 95475542#3 95475542#4 95475542#5 489630962#0 489630962#1 743379708#3 743379708#4 743379708#5 756094689 159050445#0 159050445#1 159050445#2 159050445#3 756094688 754143918#5 754143918#6 754143918#7 188147846#0 188147846#1 188147846#2 622907084#0 491197640#4 491197640#5 491197640#6 491197640#7 491197640#8 754143918#1 754143918#2 754143918#3 754143918#4 754143918#5 754143918#6 754143918#7 188147846#0 188147846#1 188147846#2 188147846#3 154054026#0 154054026#1 162657828 188147865 188147863 188147853#0 188147853#1 165487301#0 165487301#1 480996742#1 622905043#0 -160113690#3 -160113690#2 -160113690#1 -160113690#0 -158194912 158194880#2"/>
    <stop busStop="5574" duration="10.00" until="10.00"/>
    <stop busStop="5576" duration="10.00" until="110.00"/>
    <stop busStop="5592" duration="10.00" until="210.00"/>
    <stop busStop="5596" duration="10.00" until="310.00"/>
    <stop busStop="5349" duration="10.00" until="410.00"/>
    <stop busStop="5345" duration="10.00" until="510.00"/>
    <stop busStop="5341" duration="10.00" until="610.00"/>
    <stop busStop="5333" duration="10.00" until="710.00"/>
    <stop busStop="5329" duration="10.00" until="810.00"/>
    <stop busStop="5321" duration="10.00" until="910.00"/>
    <stop busStop="5317" duration="10.00" until="1010.00"/>
    <stop busStop="5313" duration="10.00" until="1110.00"/>
    <stop busStop="5309" duration="10.00" until="1210.00"/>
    <stop busStop="5305" duration="10.00" until="1310.00"/>
    <stop busStop="5301" duration="10.00" until="1410.00"/>
    <stop busStop="5368" duration="10.00" until="1510.00"/>
    <stop busStop="5367" duration="10.00" until="1610.00"/>
    <stop busStop="5366" duration="10.00" until="1710.00"/>
    <stop busStop="3821" duration="10.00" until="1810.00"/>
    <stop busStop="2217" duration="10.00" until="1910.00"/>
    <stop busStop="1313" duration="10.00" until="2010.00"/>
    <stop busStop="1505" duration="10.00" until="2110.00"/>
    <stop busStop="601" duration="10.00" until="2210.00"/>
    <stop busStop="999" duration="10.00" until="2310.00"/>
  </flow>
  <flow id="220" type="bus" begin="0" end="7200" period="7300" color="yellow" line="220">
    <route edges="158194880#1 158194912 158195022 58974277 58974276#0 58974276#1 58974276#2 659833033 492229540#1 492229540#2 491706848 95475498#5 158426437#0 158426437#1 158426437#2 158748997 158748998#0 -235084921#1 -235084921#0 -235084920#1 235084923#0 685225992 188147840#5 188147840#6 188147840#7 158426437#2 158426437#3 158426437#4 158426437#5 158426437#6 158426437#7 158426437#0 95475538#0 95475538#1 95475538#2 158426132 165487280 162657793 158426121 188147841 188147839#0 188147839#1 188147839#2 188147839#3 491197640#0 491197640#1 491197640#2 491197640#3 491197640#4 491197640#5 491197640#6 491197640#7 491197640#8 754143918#1 754143918#2 754143918#3 754143918#4 754143918#5 188147857#0 188147857#1 754143920 483252984 475112466#6 -491786597 -658176980 491786596 135416305#4 135416305#5 135416305#6 480231807 25991632#0 25991632#1 25991632#2 25991632#3 25991632#4 25991641#7 114966841#0 114966841#1 131665157#0 131665157#1 131665157#2 131665157#3 464320375#0 464320375#1 464320375#2 464320375#3 756392850 95334053#0 95334053#1 95334053#2 95334053#3 95324508 153239767#0 153239767#1 163595370 188677845 188677846 156617186#0 156617186#1 156617186#2 156617186#3 156617186#4 156617186#5 156617186#6 25948014#0 25948014#1 25948014#2 154284948#0 154284948#1 154284948#2 25948014#5 25948014#6 87809948#0 87809948#1 87809948#2 87809948#3 87809948#4 87809948#5 87809948#6 87809948#7 87816462 87816486#0 87816486#1 87816486#2 87816486#3 87816486#4 87816486#5 87816486#6 87816486#7 87816486#8 87816486#9 87816486#10 87816486#11 87816486#12 206092168#4 206495671#0 206495671#1 206495662#0 489432075 -25958705#4 -25958705#3 -25958705#2 -25958705#1 -25958705#0 206380971#4 206380971#5 206380971#6 753350550 114272198#9 114272198#10 87816486#12 206092168#4 110248649#0 110248649#1 110248649#2 110248649#3 110248649#4 110248649#5 206270737#1 206270737#2 114272198#5 114272198#6 114272198#7 114272198#8 114272198#9 114272198#10 87816486#12 206092168#4 110248649#0 110248649#1 110248649#2 110248649#3 110248649#4 110248649#5 110248649#6 110248649#7 110248649#8 110248649#9 110248649#10 110248649#11 110248649#12 159798971#1 159798971#2 490989457 490989459#0 490989459#1 114272198#0 114272198#1 114272198#2 206272059#0 206272059#1 206272059#2 110248649#5 110248649#6 110248649#7 110248649#8 110248649#9 110248649#10 110248649#11 110248649#12 110248649#13 110248649#14 110248649#15 110248649#16 110248649#17 616788431#0 616788431#1 616788431#2 616788431#3 616788431#4 616788431#5 616788432 616788429#0 616788429#1 616788429#2 616788429#3 306440501#0 306440501#1 159798957 490989456#1 159798941 741049707#1 741049705 25959038#0 25959038#1 25959038#2 214188576#0 214188576#1 -159798940#3 -159798940#2 -159798940#1 -159798940#0 481593583#4 249678237#0 625407457#0 625407450#2 625407448#0 625407448#1 619589394#1 619589396 625353486 619589395#0 619589395#1 619589395#2 619589395#3 619589394#3 625353478#0 625353478#1 625353478#2 625353479#3 619589392#0 619589392#1 619589392#2 619589391#2 619589391#3 619589391#4 619589391#0 625353484#0 625353484#1 625353484#2 625353484#3 625353484#4 625353484#5 625353479#5 625353479#6 625353479#0 625353479#1 625353479#2 625353479#3 619589392#0 619589392#1 619589392#2 619589391#2 625338291#0 625338291#1 625338291#2 625338292#2 625338292#3 625338292#4 25943105#0 -214199448#2 -214199448#1 -214199448#0 25943121#4 625338293 88296570#4 625338292#4 625338292#0 625338292#1 625338292#2 625338299#0 625338299#1 625338299#2 625338299#3 625338299#4 625338303#3 625338303#4 625338303#5 625338303#6 625338303#0 625338303#1 88296570#0 88296570#1 88296570#2 88296570#3 88296570#4 625338292#4 625338292#0 625338300#0 625338300#1 619589391#4 619589391#0 625353484#0 625353484#1 625353484#2 625353484#3 625353482 625353484#5 625353479#5 625353479#6 625353479#0 625353479#1 619589393#0 619589393#1 619589393#2 619589394#5 481593583#0 481593583#1 481593583#2 481593583#3 481593583#4 249678237#0 249678237#1 249678237#2 625407455 480278003 475904417#3 159798924#1 159798926#0 25959039#0 25959039#1 25959039#2 -25959038#1 -25959038#0 741049706 741049707#3 741049707#4 741049707#5 159798932#0 -159798930#2 -159798930#1 -159798930#0 -159798962#1 -159798962#0 206381482 490989996#1 490989996#2 490989999#0 490989999#1 479800568#1 114272198#2 114272198#3 114272198#4 114272198#5 114272198#6 114272198#7 114272198#8 114272198#9 206495671#1 206495662#0 206495662#1 206495662#2 206495662#3 206495662#4 156614664#0 156614664#1 156614664#2 156614664#3 156614664#4 156614664#5 206495662#6 206495662#7 206495662#8 206495662#9 206495662#10 206495662#11 87816630 187987853#0 187987853#1 187987853#2 187987853#3 187987853#4 187987853#5 187987853#6 187987853#7 25948030#0 25948030#1 25948030#2 25948030#3 25948030#4 25948030#5 25948030#6 25947987#0 25947987#1 25947987#2 25947987#3 25947987#4 25947987#5 25947987#6 25947987#7 163595371 188677843 188677844 156617185#0 156617185#1 156617185#2 156617185#3 153239768 486600574#0 486600574#1 486600574#2 486600574#3 486600574#4 756392849 480231812#0 480231812#1 480231812#2 480231812#3 480231812#4 480231812#5 480231812#6 480231812#7 25991641#1 25991641#2 25991641#3 25991641#4 25991641#5 479761712#0 -112681469#0 25991632#4 25991641#7 25991641#8 25991641#0 25991641#1 25991641#2 25991641#3 25991641#4 25991641#5 479761712#0 479761712#1 479761712#2 479761712#3 479761712#4 479761712#5 492163770 10852734#14 10852734#15 188272202#0 188272202#1 188272193 188272198 188272185#0 188272185#1 188272185#2 188272185#3 754143918#7 754143918#0 754143918#1 754143918#2 754143918#3 754143918#4 754143918#5 188147857#0 188147857#1 754143920 483252984 -475112466#5 -475112466#4 -475112466#3 256331691#1 256331691#2 256331691#3 256331691#4 -256331690#0 159050445#3 756094688 754143918#5 754143918#6 754143918#7 188147846#0 188147846#1 188147846#2 622907084#0 491197640#4 491197640#5 491197640#6 491197640#7 491197640#8 754143918#1 754143918#2 754143918#3 754143918#4 754143918#5 754143918#6 754143918#7 188147846#0 188147846#1 188147846#2 188147846#3 154054026#0 154054026#1 162657828 188147865 188147863 188147853#0 188147853#1 165487301#0 165487301#1 480996742#1 622905043#0 -160113690#3 -160113690#2 -160113690#1 -160113690#0 -158194912 158194880#2"/>
    <stop busStop="600" duration="10.00" until="10.00"/>
    <stop busStop="604" duration="10.00" until="110.00"/>
    <stop busStop="602" duration="10.00" until="210.00"/>
    <stop busStop="408" duration="10.00" until="310.00"/>
    <stop busStop="1412" duration="10.00" until="410.00"/>
    <stop busStop="1426" duration="10.00" until="510.00"/>
    <stop busStop="2430" duration="10.00" until="610.00"/>
    <stop busStop="2438" duration="10.00" until="710.00"/>
    <stop busStop="4046" duration="10.00" until="810.00"/>
    <stop busStop="4050" duration="10.00" until="910.00"/>
    <stop busStop="5602" duration="10.00" until="1010.00"/>
    <stop busStop="5606" duration="10.00" until="1110.00"/>
    <stop busStop="5616" duration="10.00" until="1210.00"/>
    <stop busStop="5618" duration="10.00" until="1310.00"/>
    <stop busStop="5622" duration="10.00" until="1410.00"/>
    <stop busStop="5626" duration="10.00" until="1510.00"/>
    <stop busStop="5674" duration="10.00" until="1610.00"/>
    <stop busStop="5678" duration="10.00" until="1710.00"/>
    <stop busStop="5682" duration="10.00" until="1810.00"/>
    <stop busStop="5654" duration="10.00" until="1910.00"/>
    <stop busStop="5658" duration="10.00" until="2010.00"/>
    <stop busStop="5600" duration="10.00" until="2110.00"/>
    <stop busStop="5653" duration="10.00" until="2210.00"/>
    <stop busStop="5657" duration="10.00" until="2310.00"/>
    <stop busStop="5661" duration="10.00" until="2410.00"/>
    <stop busStop="5665" duration="10.00" until="2510.00"/>
    <stop busStop="5627" duration="10.00" until="2610.00"/>
    <stop busStop="5623" duration="10.00" until="2710.00"/>
    <stop busStop="5617" duration="10.00" until="2810.00"/>
    <stop busStop="5615" duration="10.00" until="2910.00"/>
    <stop busStop="5607" duration="10.00" until="3010.00"/>
    <stop busStop="5603" duration="10.00" until="3110.00"/>
    <stop busStop="4049" duration="10.00" until="3210.00"/>
    <stop busStop="4045" duration="10.00" until="3310.00"/>
    <stop busStop="2437" duration="10.00" until="3410.00"/>
    <stop busStop="2429" duration="10.00" until="3510.00"/>
    <stop busStop="2425" duration="10.00" until="3610.00"/>
    <stop busStop="1513" duration="10.00" until="3710.00"/>
    <stop busStop="1505" duration="10.00" until="3810.00"/>
    <stop busStop="601" duration="10.00" until="3910.00"/>
    <stop busStop="999" duration="10.00" until="4010.00"/>
  </flow>

  <!-- person trips -->
  <person id="person_110.0" depart="0" departPos="150">
    <ride  from="158194880#1" to="158194880#2" lines="110" />
  </person>
  <person id="person_110.1" depart="0" departPos="150">
    <ride  from="158194880#1" to="158194880#2" lines="110" />
  </person>
  <person id="person_110.2" depart="0" departPos="150">
    <ride  from="158194880#1" to="-206486631" lines="110" />
  </person>
  <person id="person_110.3" depart="0" departPos="150">
    <ride  from="158194880#1" to="-206486631" lines="110" />
  </person>
  <person id="person_110.4" depart="0" departPos="230">
    <ride  from="-206486631" to="158194880#2" lines="110" />
  </person>
  <person id="person_110.5" depart="0" departPos="230">
    <ride  from="-206486631" to="158194880#2" lines="110" />
  </person>
  <person id="person_31020.0" depart="0" departPos="150">
    <ride  from="-481979271#1" to="165487301#1" lines="31020" />
  </person>
  <person id="person_31020.1" depart="0" departPos="150">
    <ride  from="-481979271#1" to="165487301#1" lines="31020" />
  </person>
  <person id="person_31020.2" depart="0" departPos="150">
    <ride  from="-481979271#1" to="255416197#0" lines="31020" />
  </person>
  <person id="person_31020.3" depart="0" departPos="150">
    <ride  from="-481979271#1" to="255416197#0" lines="31020" />
  </person>
  <person id="person_31020.4" depart="0" departPos="150">
    <ride  from="255416197#0" to="165487301#1" lines="31020" />
  </person>
  <person id="person_31020.5" depart="0" departPos="150">
    <ride  from="255416197#0" to="165487301#1" lines="31020" />
  </person>
  <person id="person_220.0" depart="0" departPos="150">
    <ride  from="158194880#1" to="165487301#1" lines="220" />
  </person>
  <person id="person_220.1" depart="0" departPos="150">
    <ride  from="158194880#1" to="165487301#1" lines="220" />
  </person>
  <person id="person_220.2" depart="0" departPos="150">
    <ride  from="158194880#1" to="481593583#0" lines="220" />
  </person>
  <person id="person_220.3" depart="0" departPos="150">
    <ride  from="158194880#1" to="481593583#0" lines="220" />
  </person>
  <person id="person_220.4" depart="0" departPos="150">
    <ride  from="481593583#0" to="165487301#1" lines="220" />
  </person>
  <person id="person_220.5" depart="0" departPos="150">
    <ride  from="481593583#0" to="165487301#1" lines="220" />
  </person>



</routes>
