<?xml version="1.0" encoding="UTF-8"?>

<!-- generated on 02/14/20 21:13:44 by Eclipse SUMO duarouter Version 1.3.1
<configuration xmlns:xsi="http://www.w3.org/2001/XMLSchema-instance" xsi:noNamespaceSchemaLocation="http://sumo.dlr.de/xsd/duarouterConfiguration.xsd">

<input>
<net-file value="../maps/qatar_bus.net.xml"/>
<additional-files value="additional.xml"/>
<route-files value="route.routes.xml"/>
</input>

<output>
<output-file value="repaired.routes.xml"/>
<alternatives-output value="repaired.routes.alt.xml"/>
</output>

<processing>
<repair value="true"/>
<ptline-routing value="true"/>
</processing>

<time>
<end value="100"/>
</time>

<report>
<verbose value="true"/>
<ignore-errors value="true"/>
</report>
10 - 11 - 22 - 31
</configuration>
-->

<routes xmlns:xsi="http://www.w3.org/2001/XMLSchema-instance" xsi:noNamespaceSchemaLocation="http://sumo.dlr.de/xsd/routes_file.xsd">
  <vType id="bus" length="12.00" minGap="3.00" maxSpeed="70.00" vClass="bus" guiShape="bus" color="yellow" personCapacity="25" accel="2.6" decel="4.5" sigma="0"/>
  <!-- bus trips -->
  <flow id="200" type="bus" begin="0" end="7200" period="7300" color="yellow" line="200">
    <route edges="158194880#1 158194912 158195022 58974277 58974276#0 58974276#1 58974276#2 659833033 492229540#1 492229540#2 491706848 95475498#5 158426437#0 158426437#1 158426437#2 158748997 158748998#0 -235084921#1 -235084921#0 -235084920#1 235084923#0 685225992 188147840#5 188147840#6 188147840#7 158426437#2 158426437#3 158426437#4 158426437#5 158426437#6 158426437#7 158426437#0 95475538#0 95475538#1 95475538#2 158426132 165487280 162657793 158426121 188147841 188147839#0 188147839#1 188147839#2 188147839#3 491197640#0 491197640#1 491197640#2 491197640#3 491197640#4 491197640#5 491197640#6 491197640#7 491197640#8 754143918#1 754143918#2 754143918#3 754143918#4 754143918#5 188147857#0 188147857#1 188147857#2 188147857#3 492163767#0 492163767#1 188272189 188272187 188272191#0 188272191#1 188272191#2 188272191#3 188272191#4 188272191#5 188272191#6 188272191#7 188272191#8 188272191#9 188272191#10 188272191#11 188272191#12 111614780#0 111614780#1 111614780#2 111614780#3 111614780#4 162074401 188535740 188535742 162074403 162074405#0 162074405#1 162074405#2 162074405#3 162074405#4 162074405#5 162074405#6 130540577#0 130540577#1 130540577#2 163696518 187490899 163696516#0 163696516#1 163696516#2 154084382#0 154084382#1 623196743 623196740 154084382#3 154084382#4 154084382#5 163696516#4 163696516#5 95186818#0 95186818#1 95186818#2 25948448#0 25948448#1 25948448#2 25948448#3 25948448#4 25948448#5 25948448#6 25948448#7 146864059#0 146864059#1 146864059#2 146864059#3 146864071#0 146864071#1 146864071#2 146864071#3 621306278#0 621306278#1 621306278#2 621306278#3 621306278#4 621306278#5 616762168#0 625383011 206084149#2 206084149#3 206084149#4 206084149#5 206084149#6 206084149#7 206084149#8 621554030#0 621554030#1 658061930#0 658061930#1 658061930#2 215079255#0 215079255#1 215079255#2 215079255#3 206258710 206258706#4 206258706#0 206258706#1 206258706#2 206258711 206258196#5 206258196#0 206258196#1 206258196#2 206257352 215079255#6 215079255#7 215079255#8 239742673 239742827#3 239742827#4 239742827#5 207593043#0 207593043#1 207592556#5 207592556#6 207592556#7 207592556#0 207592556#1 207593152#0 207593152#1 207593152#2 480284529#0 480284529#1 480284529#2 621556482 621554014#8 624513843 521192897#2 521192897#3 521192906#0 521192906#1 624513845 621554014#10 621554012 521192888#1 521192920 622812979#3 620951361#0 620951361#1 521192921#0 521192921#1 256042767#0 256042767#1 256042767#2 256042767#3 256042767#4 256042767#5 256042767#6 176157422#0 176157422#1 323098448#0 256042765#0 256042765#1 256042773#1 256042773#2 176157411#0 176157411#1 176157411#2 256042766#0 256042766#1 521192936#2 256042753#0 256042753#1 256042768#1 176157411#3 -323074071#3 -323074071#2 -323074071#1 -323074071#0 256042774#2 256042774#3 256042774#4 256042774#5 256042774#6 256042774#7 256042774#8 256042774#9 323098444#4 323098444#5 323098444#6 323098444#7 621318936 239169077 621318935#0 621318935#1 621318935#2 621318948 239171213#2 239171213#3 621318952 239172009#0 239172009#1 239172009#2 239172009#3 239172009#4 -239172009#4 -239172009#3 -239172009#2 -239172009#1 -239172009#0 621318955 239171213#0 239171213#1 621318946 323048406#0 323048406#1 323048406#2 323048406#3 323048406#4 323048406#5 323048406#6 621318937 323048407#4 323048407#5 621318940 -323048420#2 -323048420#1 -323048420#0 323048419#1 323048484 189032216#3 189032216#4 189032216#5 189032216#6 189032216#7 189032198#0 189032198#1 189032198#2 189032198#3 189032198#4 189032198#5 189032198#6 189032198#7 189032198#8 189032198#9 189032198#10 625456541#2 625456541#3 625456541#4 189032194#0 189032194#1 189032194#2 489923624 -189032175#3 -189032175#2 -189032175#1 -189032175#0 242349019 242349017#1 242349017#2 242349010#1 479614278#1 742352329#2 242349008#0 242349008#1 242349020#3 242349009#2 242349009#3 621313240#0 479614280#0 -234380309#6 -234380309#5 -234380309#4 -234380309#3 -234380309#2 -234380309#1 -234380309#0 624545772 624545781#1 624545771#0 624545771#1 624545771#2 624545771#3 624545771#4 620732891#1 624545768#1 624545768#2 624545768#3 -624545770 -476108261#1 620732890#0 -658165674 624553151 624553137#2 624553156 476108261#0 620732890#0 620732890#1 620732890#2 -624553140#0 624553142 624553149#7 624553149#8 624553149#0 624553149#1 624553149#2 624553149#3 189032240#0 490724880 476108265#6 476108265#7 476108265#8 476108265#9 476108265#10 235369889#0 235369889#1 235369889#2 235369889#3 235369889#4 235369889#5 235369889#6 235369889#7 235369889#8 235369889#9 480315951 186277063#1 186277063#2 186277063#3 186277063#4 186277063#5 186277063#6 133958429#4 133958429#5 133958429#6 133958429#0 133958429#1 133958429#2 238431579#0 480316875#0 480316875#1"/>
    <stop busStop="600" duration="10.00" until="10.00"/>
    <stop busStop="604" duration="10.00" until="110.00"/>
    <stop busStop="602" duration="10.00" until="210.00"/>
    <stop busStop="408" duration="10.00" until="310.00"/>
    <stop busStop="2416" duration="10.00" until="410.00"/>
    <stop busStop="2420" duration="10.00" until="510.00"/>
    <stop busStop="4024" duration="10.00" until="610.00"/>
    <stop busStop="4028" duration="10.00" until="710.00"/>
    <stop busStop="4332" duration="10.00" until="810.00"/>
    <stop busStop="4336" duration="10.00" until="910.00"/>
    <stop busStop="5652" duration="10.00" until="1010.00"/>
    <stop busStop="6013" duration="10.00" until="1110.00"/>
    <stop busStop="6010" duration="10.00" until="1210.00"/>
    <stop busStop="6007" duration="10.00" until="1310.00"/>
    <stop busStop="6008" duration="10.00" until="1410.00"/>
    <stop busStop="6011" duration="10.00" until="1510.00"/>
    <stop busStop="6000" duration="10.00" until="1610.00"/>
    <stop busStop="55660" duration="10.00" until="1710.00"/>
    <stop busStop="55662" duration="10.00" until="1810.00"/>
    <stop busStop="55664" duration="10.00" until="1910.00"/>
    <stop busStop="55668" duration="10.00" until="2010.00"/>
    <stop busStop="5001" duration="10.00" until="2110.00"/>
    <stop busStop="368" duration="10.00" until="2210.00"/>
    <stop busStop="369" duration="10.00" until="2310.00"/>
    <stop busStop="405" duration="10.00" until="2410.00"/>
    <stop busStop="445" duration="10.00" until="2510.00"/>
    <stop busStop="372" duration="10.00" until="2610.00"/>
    <stop busStop="373" duration="10.00" until="2710.00"/>
    <stop busStop="374" duration="10.00" until="2810.00"/>
    <stop busStop="375" duration="10.00" until="2910.00"/>
    <stop busStop="376" duration="10.00" until="3010.00"/>
    <stop busStop="391" duration="10.00" until="3110.00"/>
    <stop busStop="392" duration="10.00" until="3210.00"/>
    <stop busStop="393" duration="10.00" until="3310.00"/>
    <stop busStop="394" duration="10.00" until="3410.00"/>
    <stop busStop="395" duration="10.00" until="3510.00"/>
  </flow>
  <flow id="10010" type="bus" begin="0" end="7200" period="7300" color="yellow" line="10010">
    <route edges="158194880#1 158194912 158195022 58974277 58974276#0 58974276#1 58974276#2 659833033 492229540#1 492229540#2 491706848 95475498#5 158426437#0 158426437#1 158426437#2 158748997 158748998#0 -235084921#1 -235084921#0 -235084920#1 235084923#0 685225992 188147840#5 188147840#6 188147840#7 158426437#2 158426437#3 158426437#4 158426437#5 158426437#6 158426437#7 158426437#0 95475538#0 95475538#1 95475538#2 154054008#0 154054008#1 162657808 188147868 188147860 188147849#0 188147849#1 188147849#2 111614727#0 111614727#1 158426573 158426195#0 158426195#1 158426210#0 158426210#1 95475488#0 95475488#1 165499568#0 165499568#1 165499568#2 165499568#3 165499568#4 165499568#5 165499568#6 165499568#7 165499568#8 25991813 491786600 158194852#0 158194852#1 158194852#2 158194852#3 158194852#4 158194852#5 190323552 158194945#3 158194913#1 158194913#2 158194852#8 158194852#9 158194852#10 158194852#11 158194852#12 158194852#13 485210457 492425102 492425101 492425100 492425099 492425098 485210460 -25991628#2 -25991628#1 -25991628#0 485213306 492425091 190323579 492425090 485213303 111738509#0 111738509#1 111738509#2 111738509#3 111738509#4 111738509#5 -111738509#5 111738509#5 111738509#6 -158194879#8 -158194879#7 -158194879#6 -158194879#5 158194879#5 -158194879#5 -158194879#4 -158194879#3 -158194879#2 -158194879#1 -158194879#0 158194868 160113987 158426734 25991598#0 25991598#1 25991598#2 162072481 188531101 188531095 162072482 158426507#0 158426507#1 160113769#0 160113769#1 160113769#2 25948293#0 25948293#1 25948293#2 492425088 492425113 25948299#0 25948299#1 25948299#2 25948299#3 25948299#4 25948299#5 492425106 187482413 623571616#0 623571616#1 -26003916#13 -26003916#12 -26003916#11 -26003916#10 -26003916#9 -26003916#8 -26003916#7 -26003916#6 -26003916#5 -26003916#4 -26003916#3 -26003916#2 -26003916#1 -26003916#0 -95186916#2 -95186916#1 -95186916#0 488057669 492425104 165499575#0 165499575#1 165499575#2 165499575#3 165499575#4 165499575#5 165499575#6 165499575#7 165499575#8 165499575#9 165499575#10 165499575#11 165499575#12 165499575#13 165499575#14 103987775 154722236 187482437 187482451 188822635 187490897 176155596#0 176155596#1 176155596#2 176155596#3 176155596#4 176155596#5 176155596#6 176155596#7 176155596#8 176155596#9 176155596#10 176155596#11 176155596#12 176155596#13 479085491#0 479085490 479085491#3 176155596#16 176155596#17 176155596#18 176155596#19 176155596#20 176155596#21 176155596#22 488345109#0 488345109#1 488345109#2 488345109#3 488345109#4 479822480#0 479822480#1 479822480#2 365935239#0 365935239#1 365935239#2 365935239#3 365935239#4 365935239#5 365935239#6 365935239#7 365935239#8 365935239#9 488505713#2 488505713#3 488505713#4 488505713#5 488505713#6 488505711#0 488505711#1 616720492 206082856#1 616720493 488505711#3 318294612 492022522 479817721#0 479817721#1 492022524#2 658648447 658648444 -658648444 658648445 492022524#4 492022524#5 492022524#6 524476004#0 616810039#0 616810039#1 518985891 527621257 521092735#0 521092735#1 480280481 492031715 519457136#1 456794634 206329222#4 206329222#5 206329222#0 206329222#1 206331947#0 206331947#1 206331947#2 214220671 -214220670#1 -214220670#0 206333005#1 206331956#4 206331956#5 206331956#6 206331956#7 206329222#1 206329222#2 456794633 519457136#3 519457134#0 519457134#1 519457134#2 480285108#7 527617949 527617948 480285106#0 480285106#1 480285106#2 480285106#3 480285106#4 480285106#5 480285106#6 480285106#7 480285106#8 480285106#9 480285106#10 480285106#11 480285106#12 480285106#13 480285106#14 480285106#15 479822479#0 479822479#1 479821359#0 479821359#1 479821359#2 206486732#0 206486732#1 206486732#2 206486732#3 206486732#4 206486732#5 206486732#6 206486732#7 206486732#8 206486732#9 206486732#10 206486732#11 479819957#6 479819957#7 479819957#8 479819957#9 322569104 87826059#2 87826059#3 87826059#4 87826059#5 87826059#6 87826059#7 87826059#8 87826059#9 87826059#10 87826059#11 488345108#2 488345108#3 488345108#4 488345108#5 488345905 176155596#11 176155596#12 176155596#13 176155596#14 488509914#0 488509914#1 635944737#1 176155596#19 488509911#2 635944744 488509922 488345108#4 488345108#5 488345108#6 488345108#7 488345108#8 488345108#9 488345108#10 488345108#11 133958421#0 133958421#1 133958421#2 133958421#3 133958421#4 154722233#0 154722233#1 176155596#0 176155596#1 176155596#2 176155596#3 176155596#4 176155596#5 488345906#0 619553810 488345108#10 488345108#11 133958421#0 133958421#1 133958421#2 133958421#3 133958421#4 154722233#0 163699985 187482446 188822633 187490894#0 187490894#1 106548184 158194860#0 158194860#1 488274800 488274801 158194860#3 158194860#4 158194860#5 158194860#6 158194860#7 107456602 158194858#2 106548183 158194860#9 488276336 95186730#0 95186730#1 95186730#2 95186730#3 95186730#4 95186730#5 -488091218#10 -488091218#9 -488091218#8 -488091218#7 -488091218#6 -488091218#5 -488091218#4 -488091218#3 -488091218#2 -488091218#1 -488091218#0 361643887#0 361643887#1 361643887#2 492425088 492425087#0 492425087#1 492425087#2 158194864#0 158194864#1 158194877#0 158194877#1 158194877#2 158194877#3 162072480 188531097 188531099 162072483 25991592#0 25991592#1 25991592#2 158194977#0 158194977#1 158194867 158194879#0 158194879#1 158194879#2 158194879#3 158194879#4 158194879#5 158194879#6 158194879#7 158194879#8 -111738509#6 -111738509#5 -111738509#4 -111738509#3 -111738509#2 -111738509#1 -111738509#0 485213302 492425095 492425094 492425093 485213307 25991628#0 25991628#1 25991628#2 485210459 25991642 485210458 -158194852#13 -158194852#12 -158194852#11 -158194852#10 -158194852#9 -158194852#8 -158194852#7 -158194852#6 -158194852#5 -158194852#4 -158194852#3 -158194852#2 -158194852#1 -158194852#0 -491786600 -25991813 165499569#0 -258216276#2 -190323575#4 -190323575#3 -190323575#2 -190323575#1 111614700#7 479804705 165499568#5 165499568#6 165499568#7 165499568#8 25991813 491786599 158194853#0 158194853#1 158194853#2 158194853#3 158194853#4 158194853#5 158194853#6 158195063 162657830 188266563 188266564 158194824#0 158194824#1 158194824#2 491190428 115738581#2 115738581#3 115738581#4 115738581#5 115738581#6 158194824#6 158194824#7 162657797 95475501 188147852 188147853#0 188147853#1 165487301#0 165487301#1 165487301#2 165487301#3 165487301#4 158194914#0 158194914#1 158194914#2 158194880#0 158194880#1"/>
    <stop busStop="600" duration="10.00" until="10.00"/>
    <stop busStop="604" duration="10.00" until="110.00"/>
    <stop busStop="602" duration="10.00" until="210.00"/>
    <stop busStop="1508" duration="10.00" until="310.00"/>
    <stop busStop="1520" duration="10.00" until="410.00"/>
    <stop busStop="2524" duration="10.00" until="510.00"/>
    <stop busStop="2526" duration="10.00" until="610.00"/>
    <stop busStop="2528" duration="10.00" until="710.00"/>
    <stop busStop="2532" duration="10.00" until="810.00"/>
    <stop busStop="2536" duration="10.00" until="910.00"/>
    <stop busStop="4244" duration="10.00" until="1010.00"/>
    <stop busStop="4246" duration="10.00" until="1110.00"/>
    <stop busStop="4252" duration="10.00" until="1210.00"/>
    <stop busStop="4256" duration="10.00" until="1310.00"/>
    <stop busStop="4260" duration="10.00" until="1410.00"/>
    <stop busStop="4264" duration="10.00" until="1510.00"/>
    <stop busStop="42268" duration="10.00" until="1610.00"/>
    <stop busStop="44448" duration="10.00" until="1710.00"/>
    <stop busStop="44452" duration="10.00" until="1810.00"/>
    <stop busStop="44456" duration="10.00" until="1910.00"/>
    <stop busStop="46664" duration="10.00" until="2010.00"/>
    <stop busStop="46666" duration="10.00" until="2110.00"/>
    <stop busStop="50500" duration="10.00" until="2310.00"/>
    <stop busStop="99402" duration="10.00" until="2410.00"/>
    <stop busStop="99400" duration="10.00" until="2510.00"/>
    <stop busStop="46668" duration="10.00" until="2710.00"/>
    <stop busStop="46672" duration="10.00" until="2810.00"/>
    <stop busStop="46676" duration="10.00" until="2910.00"/>
    <stop busStop="46680" duration="10.00" until="3010.00"/>
    <stop busStop="46679" duration="10.00" until="3110.00"/>
    <stop busStop="46675" duration="10.00" until="3210.00"/>
    <stop busStop="46671" duration="10.00" until="3310.00"/>
    <stop busStop="44467" duration="10.00" until="3410.00"/>
    <stop busStop="44463" duration="10.00" until="3510.00"/>
    <stop busStop="44459" duration="10.00" until="3610.00"/>
    <stop busStop="4172" duration="10.00" until="3710.00"/>
    <stop busStop="4176" duration="10.00" until="3810.00"/>
    <stop busStop="4180" duration="10.00" until="3910.00"/>
    <stop busStop="4241" duration="10.00" until="4010.00"/>
    <stop busStop="2637" duration="10.00" until="4110.00"/>
    <stop busStop="2633" duration="10.00" until="4210.00"/>
    <stop busStop="2529" duration="10.00" until="4310.00"/>
    <stop busStop="2527" duration="10.00" until="4410.00"/>
    <stop busStop="2525" duration="10.00" until="4510.00"/>
    <stop busStop="2521" duration="10.00" until="4610.00"/>
    <stop busStop="2519" duration="10.00" until="4710.00"/>
    <stop busStop="1609" duration="10.00" until="4810.00"/>
    <stop busStop="601" duration="10.00" until="4910.00"/>
    <stop busStop="600" duration="10.00" until="5010.00"/>
  </flow>
  <flow id="110" type="bus" begin="0" end="7200" period="7300" color="yellow" line="110">
    <route edges="158194880#1 158194912 158195022 58974277 58974276#0 58974276#1 58974276#2 659833033 492229540#1 492229540#2 491706848 95475498#5 158426437#0 158426437#1 158426437#2 158748997 158748998#0 -235084921#1 -235084921#0 -235084920#1 235084923#0 685225992 188147840#5 188147840#6 188147840#7 158426437#2 158426437#3 158426437#4 158426437#5 158426437#6 158426437#7 158426437#0 95475538#0 95475538#1 95475538#2 154054008#0 154054008#1 162657808 188147868 188147860 188147849#0 188147849#1 188147849#2 111614727#0 111614727#1 158426573 158426195#0 158426195#1 158426210#0 158426210#1 165499564 162657796 188266548 188266552 158194834#0 158194834#1 158194834#2 158194834#3 158194834#4 158194834#5 160114050 160113713 160113701#0 160113701#1 160113701#2 160113701#3 160113701#4 131665143#9 131665144 160114121 160113720#0 160113720#1 160113720#2 -158194814#5 -158194814#4 -158194814#3 -158194814#2 -158194814#1 -158194814#0 -158194879#8 -158194879#7 -158194879#6 -158194879#5 158194879#5 -158194879#5 -158194879#4 -158194879#3 -158194879#2 -158194879#1 -158194879#0 158194868 160113987 158426734 25991598#0 25991598#1 25991598#2 162072481 188531101 188531095 162072482 158426507#0 158426507#1 160113769#0 160113769#1 160113769#2 25948293#0 25948293#1 25948293#2 492425109#0 492425109#1 492425109#2 492426170 163699996 187482447 188822636 187482402#0 187482402#1 187482402#2 95186908 106475733#0 106475733#1 106475733#2 160113901#0 479816301 163699970#3 133618455#0 154283671#1 154283671#2 154283671#3 154283671#4 154283671#5 154283671#6 154283671#7 -105617962#5 -105617962#4 -105617962#3 -105617962#2 -105617962#1 105617962#1 105617962#2 105617962#3 105617962#4 105617962#5 154283671#8 154283671#9 105617964#0 105617964#1 105617964#2 105617964#3 115628470#1 115628470#2 488494821#0 488494821#1 488494821#2 488494821#3 488494821#4 488494821#5 621342675#0 621342675#1 621342675#2 -480255700#20 -480255700#19 -480255700#18 -480255700#17 -480255700#16 -480255700#15 -480255700#14 -480255700#13 480237234#0 480237234#1 488494811#3 488494811#4 488494811#5 488349631#0 488349631#1 488349631#2 488349631#3 488349631#4 488349631#5 488349631#6 488349631#7 155988280#7 155988280#8 155988280#9 155988280#10 155988280#11 155988280#12 155988281#6 155988281#7 155988281#8 155988281#0 480255686#0 480255686#1 480255686#2 480255686#3 488494818#0 488494818#1 115628455#6 115628455#7 115628455#8 115628455#0 115628455#1 115628455#2 153940693#0 153940693#1 153940693#2 153940693#3 153940693#4 -153941746#5 153941746#5 153940693#5 95187236#14 95187236#15 95187236#16 95187236#17 635944737#0 635944737#1 176155596#19 176155596#20 176155596#21 176155596#22 488345109#0 488345109#1 488345109#2 488345109#3 488345109#4 479822480#0 479822480#1 479821358#1 479821358#2 620934244#0 620934244#1 620934244#2 -479817734#0 60893886#0 60893886#1 60893886#2 60893886#3 60893886#4 60893886#5 60893886#6 206489306 488345107#3 488345107#4 488345107#5 488345107#6 488345107#7 206082716#0 206082716#1 206082716#2 206082716#3 206082716#4 206082716#5 206082716#6 206082716#7 206082716#8 206082782#0 206082782#1 206082782#2 -211954205#3 -211954205#2 -211954205#1 -211954205#0 -60893786#5 -60893786#4 -60893786#3 -60893786#2 -206486631 -206490002 -206489305#8 -206489305#7 -206489305#6 -206489305#5 -206489305#4 -206489305#3 -206489305#2 -206489305#1 -206489305#0 -211934806#4 -211934806#3 -211934806#2 -211934806#1 -211934806#0 -183786037#2 -183786037#1 -183786037#0 480285106#13 480285106#14 480285106#15 479822479#0 479822479#1 479822479#2 479822481#0 479822481#1 479822481#2 479822481#3 488345108#0 488345108#1 488345108#2 488345108#3 488345108#4 488345108#5 488345905 176155596#11 176155596#12 176155596#13 176155596#14 488509914#0 488509914#1 635944737#1 176155596#19 488509911#2 635944744 488509922 488345108#4 488345108#5 488345108#6 488345108#7 488338981#1 488338981#2 488338981#3 111424625#1 111424625#2 153940692#0 153940692#1 153940692#2 153940692#3 115628455#2 115628455#3 115628455#4 115628450#0 115628450#1 115628450#2 115628450#3 155988281#2 155988281#3 155988281#4 488351083#0 488351083#1 488351083#2 488351083#3 488351083#4 -488349631#8 -488349631#7 -488349631#6 -488349631#5 -488349631#4 -488349631#3 -488349631#2 -488349631#1 -488349631#0 -26007194#1 -26007194#0 480255700#10 480255700#11 480255700#12 480255700#13 480255700#14 480255700#15 480255700#16 480255700#17 480255700#18 480255700#19 480255700#20 621342676#0 480255687 480255690#7 480255690#8 480255690#9 480255690#10 480255690#11 480255690#12 488494820#0 488494820#1 117318941#0 479816304#0 479816304#1 479816304#2 153940278#0 153940278#1 153940278#2 153940278#3 153940278#4 153940278#5 153940278#6 -163699973 -160113901#1 -160113901#0 -154283673#4 -154283673#3 -154283673#2 -154283673#1 -154283673#0 105617959#1 133958421#4 133958421#5 133958421#6 133958421#7 187482429 187490896 187490898 492430461 158426520#0 158426520#1 158426520#2 158426520#3 492425087#0 492425087#1 492425087#2 158194864#0 158194864#1 158194877#0 158194877#1 158194877#2 158194877#3 162072480 188531097 188531099 162072483 25991592#0 25991592#1 25991592#2 158194977#0 158194977#1 158194867 158194879#0 158194879#1 158194879#2 158194879#3 158194879#4 158194879#5 158194879#6 158194879#7 158194879#8 158194814#0 158194814#1 158194814#2 158194814#3 158194814#4 158194814#5 131665143#0 131665143#1 131665143#2 131665143#3 131665143#4 131665143#5 131665143#6 131665143#7 131665143#8 -160113701#4 -160113701#3 -160113701#2 -160113701#1 -160113701#0 139105791#0 139105791#1 139105791#2 162723716#0 162723716#1 755033427 162723718#0 162723718#1 162723718#2 162723718#3 162723718#4 162723718#5 162657795 188266551 188266550 158194824#0 158194824#1 158194824#2 491190428 115738581#2 115738581#3 115738581#4 115738581#5 115738581#6 158194824#6 158194824#7 162657797 95475501 188147852 188147853#0 188147853#1 165487301#0 165487301#1 480996742#1 622905043#0 -160113690#3 -160113690#2 -160113690#1 -160113690#0 -158194912 158194880#2"/>
    <stop busStop="600" duration="10.00" until="10.00"/>
    <stop busStop="604" duration="10.00" until="110.00"/>
    <stop busStop="602" duration="10.00" until="210.00"/>
    <stop busStop="1508" duration="10.00" until="310.00"/>
    <stop busStop="2610" duration="10.00" until="410.00"/>
    <stop busStop="2516" duration="10.00" until="510.00"/>
    <stop busStop="2532" duration="10.00" until="610.00"/>
    <stop busStop="2536" duration="10.00" until="710.00"/>
    <stop busStop="4140" duration="10.00" until="810.00"/>
    <stop busStop="4544" duration="10.00" until="910.00"/>
    <stop busStop="4548" duration="10.00" until="1010.00"/>
    <stop busStop="4552" duration="10.00" until="1110.00"/>
    <stop busStop="4556" duration="10.00" until="1210.00"/>
    <stop busStop="4560" duration="10.00" until="1310.00"/>
    <stop busStop="4564" duration="10.00" until="1410.00"/>
    <stop busStop="4572" duration="10.00" until="1510.00"/>
    <stop busStop="4576" duration="10.00" until="1610.00"/>
    <stop busStop="4580" duration="10.00" until="1710.00"/>
    <stop busStop="4584" duration="10.00" until="1810.00"/>
    <stop busStop="4588" duration="10.00" until="1910.00"/>
    <stop busStop="4700" duration="10.00" until="2010.00"/>
    <stop busStop="4704" duration="10.00" until="2110.00"/>
    <stop busStop="4722" duration="10.00" until="2210.00"/>
    <stop busStop="4730" duration="10.00" until="2310.00"/>
    <stop busStop="4734" duration="10.00" until="2410.00"/>
    <stop busStop="4738" duration="10.00" until="2510.00"/>
    <stop busStop="4742" duration="10.00" until="2610.00"/>
    <stop busStop="4746" duration="10.00" until="2710.00"/>
    <stop busStop="4750" duration="10.00" until="2810.00"/>
    <stop busStop="4754" duration="10.00" until="2910.00"/>
    <stop busStop="4701" duration="10.00" until="3010.00"/>
    <stop busStop="46669" duration="10.00" until="3110.00"/>
    <stop busStop="44467" duration="10.00" until="3210.00"/>
    <stop busStop="4589" duration="10.00" until="3310.00"/>
    <stop busStop="4585" duration="10.00" until="3410.00"/>
    <stop busStop="4581" duration="10.00" until="3510.00"/>
    <stop busStop="4577" duration="10.00" until="3610.00"/>
    <stop busStop="4573" duration="10.00" until="3710.00"/>
    <stop busStop="4565" duration="10.00" until="3810.00"/>
    <stop busStop="4561" duration="10.00" until="3910.00"/>
    <stop busStop="4557" duration="10.00" until="4010.00"/>
    <stop busStop="4553" duration="10.00" until="4110.00"/>
    <stop busStop="4549" duration="10.00" until="4210.00"/>
    <stop busStop="4545" duration="10.00" until="4310.00"/>
    <stop busStop="4241" duration="10.00" until="4410.00"/>
    <stop busStop="2637" duration="10.00" until="4510.00"/>
    <stop busStop="2633" duration="10.00" until="4610.00"/>
    <stop busStop="2617" duration="10.00" until="4710.00"/>
    <stop busStop="2711" duration="10.00" until="4810.00"/>
    <stop busStop="1609" duration="10.00" until="4910.00"/>
    <stop busStop="601" duration="10.00" until="5010.00"/>
    <stop busStop="999" duration="10.00" until="5110.00"/>
  </flow>
  <flow id="31020" type="bus" begin="0" end="7200" period="7300" color="yellow" line="31020">
    <route edges="-481979271#1 -481979271#0 255323867 177998712#7 177998712#8 177998712#0 177998712#1 480290160 -177998686#3 -177998686#2 -177998686#1 -177998686#0 741055113 741055115#5 741055111#0 741055111#1 177998674#0 -236193617#11 -236193617#10 -236193617#9 -236193617#8 -236193617#7 -236193617#6 -236193617#5 -236193617#4 -236193617#3 -236193617#2 -236193617#1 -236193617#0 236193615#14 236193615#15 480275015 236193091#5 236193091#6 236193091#7 236193091#8 236193091#0 236193091#1 480275019 -490718482#27 -490718482#26 -490718482#25 -490718482#24 -490718482#23 -490718482#22 -490718482#21 -490718482#20 -490718482#19 -490718482#18 -490718482#17 -490718482#16 -490718482#15 -490718482#14 -490718482#13 -490718482#12 -490718482#11 -490718482#10 -490718482#9 -490718482#8 -490718482#7 -490718482#6 -490718482#5 -490718482#4 -490718482#3 -490718482#2 -490718482#1 -490718482#0 236193090 235430045#7 235430045#8 235430045#0 235430045#1 235429860#0 235429860#1 235429860#2 490621447 -235429912#8 235429912#8 -235429912#8 -235429912#7 -235429912#6 25931697#0 25931697#1 25931697#2 25931697#3 25931697#4 25931700#1 25931700#2 255416197#0 255416197#1 255416197#2 255416197#3 490618082#2 -255416228#2 -255416228#1 -255416228#0 255416191 235429860#15 235436484#2 235436484#3 235436484#4 235436484#5 235436484#6 235436489#0 235436489#1 235436489#2 235436489#3 490200856 255416214 255416142#0 255416142#1 255416142#2 255416142#3 255416142#4 475316645#0 475316645#1 475316645#2 475316645#3 475316645#4 625452609#0 -475316658#0 235436483#2 235436483#3 235436483#4 490546661#0 658171207 491632370#10 491632370#11 491632370#12 491632370#13 491632370#14 491632370#15 491632370#16 490361702#0 490361702#1 490361702#2 490361702#3 490361702#4 490361702#5 490361702#6 235455101#4 235455101#5 235455101#6 235455107#0 235455107#1 622905388#0 622905388#1 697018122#10 697018122#11 697018122#12 697018122#13 697018122#14 697018122#15 492022521#0 492022521#1 492022521#2 25931908#4 25931908#5 25931908#6 25931908#7 623131062 25935365#1 25935365#2 25935365#3 696706385 696706384 25935387#0 25935387#1 25935387#2 25935387#3 25935387#4 25935387#5 25935387#6 489433999 691244840 691244837#0 691244837#1 489435506 489434005 658050381 140488317 140488318 140488313 747831962#0 747831962#1 747831962#2 747831960#0 747831960#1 747831959#0 747831959#1 747831959#2 123423114#0 123423114#1 123423114#2 747831961#0 747831961#1 747831961#2 747831961#3 159050454#0 159050454#1 159050454#2 747842170 289341429 490150115#0 490150115#1 490150094 187490889#0 187490889#1 187490889#2 187490889#3 187490889#4 159050455#0 159050455#1 159050455#2 623589692 95601628 623589691#0 111614805#0 111614805#1 111614805#2 111614805#3 111614805#4 111614805#5 489632180#0 107195551 95475542#0 95475542#1 95475542#2 95475542#3 95475542#4 95475542#5 489630962#0 489630962#1 743379708#3 743379708#4 743379708#5 756094689 159050445#0 159050445#1 159050445#2 159050445#3 756094688 754143918#5 754143918#6 754143918#7 188147846#0 188147846#1 188147846#2 622907084#0 491197640#4 491197640#5 491197640#6 491197640#7 491197640#8 754143918#1 754143918#2 754143918#3 754143918#4 754143918#5 754143918#6 754143918#7 188147846#0 188147846#1 188147846#2 188147846#3 154054026#0 154054026#1 162657828 188147865 188147863 188147853#0 188147853#1 165487301#0 165487301#1 480996742#1 622905043#0 -160113690#3 -160113690#2 -160113690#1 -160113690#0 -158194912 158194880#2"/>
    <stop busStop="5574" duration="10.00" until="10.00"/>