<?xml version="1.0" encoding="UTF-8"?>

<!-- generated on 10/12/20 17:48:24 by Eclipse SUMO activitygen Version 1.3.1
<configuration xmlns:xsi="http://www.w3.org/2001/XMLSchema-instance" xsi:noNamespaceSchemaLocation="http://sumo.dlr.de/xsd/activitygenConfiguration.xsd">

    <input>
        <net-file value="doha.net.xml"/>
        <stat-file value="doha.stat.xml"/>
    </input>

    <output>
        <output-file value="doha.trips.rou.xml"/>
    </output>

    <random_number>
        <random value="true"/>
    </random_number>

</configuration>
-->

<routes xmlns:xsi="http://www.w3.org/2001/XMLSchema-instance" xsi:noNamespaceSchemaLocation="http://sumo.dlr.de/xsd/routes_file.xsd">
