<?xml version="1.0" encoding="UTF-8"?>

<!-- generated on 02/14/20 21:13:44 by Eclipse SUMO duarouter Version 1.3.1
<configuration xmlns:xsi="http://www.w3.org/2001/XMLSchema-instance" xsi:noNamespaceSchemaLocation="http://sumo.dlr.de/xsd/duarouterConfiguration.xsd">

<input>
<net-file value="../maps/qatar_bus.net.xml"/>
<additional-files value="additional.xml"/>
<route-files value="route.routes.xml"/>
</input>

<output>
<output-file value="repaired.routes.xml"/>
<alternatives-output value="repaired.routes.alt.xml"/>
</output>

<processing>
<repair value="true"/>
<ptline-routing value="true"/>
</processing>

<time>
<end value="100"/>
</time>

<report>
<verbose value="true"/>
<ignore-errors value="true"/>
</report>

</configuration>
-->

<routes xmlns:xsi="http://www.w3.org/2001/XMLSchema-instance" xsi:noNamespaceSchemaLocation="http://sumo.dlr.de/xsd/routes_file.xsd">
  <vType id="bus" length="12.00" minGap="3.00" maxSpeed="70.00" vClass="bus" guiShape="bus" color="yellow" personCapacity="25" accel="2.6" decel="4.5" sigma="0"/>
  <!-- bus trips -->
  <flow id="1000" type="bus" begin="0" end="7200" period="600" color="yellow" line="1000">
    <route edges="158194880#1 158194912 158195022 58974277 58974276#0 58974276#1 58974276#2 659833033 492229540#1 492229540#2 491706848 95475498#5 158426437#0 158426437#1 158426437#2 158748997 158748998#0 -235084921#1 -235084921#0 -235084920#1 235084923#0 685225992 188147840#5 188147840#6 188147840#7 158426437#2 158426437#3 158426437#4 158426437#5 158426437#6 158426437#7 158426437#0 95475538#0 95475538#1 95475538#2 158426132 165487280 162657793 158426121 188147841 188147839#0 188147839#1 188147839#2 188147839#3 491197640#0 491197640#1 491197640#2 491197640#3 491197640#4 491197640#5 491197640#6 491197640#7 491197640#8 754143918#1 754143918#2 754143918#3 107348141#0 107348141#1 107348141#2 743379708#7 743379708#8 743379708#0 743379708#1 743379708#2 743379708#3 95475533#0 95475533#1 95475533#2 95475533#3 95475533#4 95475533#5 88243585#0 88243585#1 88243585#2 88243585#3 113814975#0 113814975#1 113814975#2 113814975#3 113814975#4 113814975#5 113814975#6 113814975#7 113814975#8 113814975#9 95601632#0 95601632#1 623589691#0 111614805#0 111614805#1 111614805#2 111614805#3 111614805#4 111614805#5 489632180#0 489632180#1 114504508#0 114504508#1 114504508#2 479807294#11 490771425#2 583575573#0 583575573#1 489630955 111614732#0 111614732#1 111614732#2 111614732#3 492650242#1 623589694 95601625#0 95601625#1 95601625#2 138715668 95601603#3 95601603#4 95601603#5 107458374#0 107458374#1 107458374#2 107458374#3 107458374#4 107458374#5 107458374#6 490765922#0 490765922#1 490765922#2 490765922#3 10571949 489670473 489670476#0 489670476#1 489670476#2 490956628#0 490956628#1 490956628#2 490956628#3 490956628#4 490956628#5 208518333 165303632#0 165303632#1 244281960 244281959#0 244281959#1 244281959#2 489425038 489433437 489626250 489626253 95741976#0 95741976#1 95741976#2 95741976#3 95741976#4 95741976#5 95741976#6 95741976#7 489628877 489628878 23807567#0 23807567#1 23807567#2 23807567#3 480227246#0 480227246#1 480227246#2 480227246#3 480227246#4 480227246#5 480227246#6 480227246#7 480227246#8 480227246#9 480227246#10 480227246#11 158471807#13 114310015#0 114310015#1 114310015#2 114310015#3 114310015#4 114310015#5 212466558#0 212466558#1 212466558#2 23807567#5 23807567#6 23807567#7 23807567#8 23807567#9 23807567#10 234384427 490422367#1 490422367#2 234383787#0 234383787#1 234383787#2 234383787#3 490423331 490423350#0 490423350#1 490423350#2 490423343 400449592#0 400449592#1 400449592#2 400449592#3 400449592#4 400449592#5 400449592#6 25935520 490798037 490798039#0 490798039#1 490798039#2 490798039#3 98377106#1 133050074#0 133050074#1 479760776#0 479760776#1 479760775 256138066#0 256138066#1 256156074#0 256156074#1 178755697 248802642 491207689#0 491207689#1 302138417 618339531#0 618339531#1 618339531#2 618339531#3 618339531#4 618339529 256140486#0 256140486#1 256140486#2 256140486#3 256140486#4 256140486#5 256140486#6 256140486#7 256140486#8 256140486#9 256140486#10 256140486#11 256140486#12 256140486#13 256140486#14 256140486#15 256140486#16 256140486#17 256140486#18 226871342 226871345 226871341 226871348#0 226871348#1 226871348#2 225239813 225239806#0 225239806#1 225239806#2 225239806#3 225239806#4 225239806#5 225239806#6 225239806#7 225239806#8 155348934#0 155348934#1 155348934#2 155348944 155245326 155348946 742739936 258044185#0 258044185#1 614989317#3 614989317#4 614989319 133979847#0 133979847#1 133979847#2 133979847#3 133979847#4 133979847#5 133979847#6 133979847#7 -236381788#25 -236381788#24 -236381788#23 -236381788#22 -236381788#21 -236381788#20 -236381788#19 -236381788#18 -236381788#17 -236381788#16 236408645#0 236408689#0 -236408689#0 -236408645#0 236381788#16 236381788#17 236381788#18 236381788#19 236381788#20 236381788#21 236381788#22 236381788#23 236381788#24 236381788#25 133979847#8 133979847#9 133979847#10 133979847#11 133979847#12 133979847#13 133979847#14 133979847#15 133979847#16 133979847#17 133979847#18 133979847#19 133979847#20 133979847#21 133979847#22 133979847#23 133979847#24 133979847#25 133979847#26 133979847#27 129287621 253384739#0 253384739#1 253384739#2 253384739#3 253384739#4 253384739#5 253384739#6 253384739#7 253384739#8 253384739#9 253384739#10 253384739#11 253384739#12 253384739#13 253384739#14 253384739#15 253384739#16 253384739#17 253384739#18 253384739#19 253384739#20 133979910 188099805#0 188099806#0 188099806#1 188099806#2 188099806#3 188099806#4 188099806#5 188099806#6 188099806#7 188099806#8 188099804#1 188099688#3 188099690#0 487866554#0 487866554#1 487866554#2 487866554#3 487866554#4 188099579#0 -188099579#0 188099579#0 188099579#1 188099579#2 188099579#3 188099579#4 188107662#0 188107662#1 188110304#0 188110304#1 188110305 -188105999#1 -188107662#3 -188107662#2 -188107662#1 -188107662#0 188099579#5 188099579#6 -188099579#6 188099579#6 188099579#7 129287617#1 129287649#7 129287649#8 129287649#0 129287649#1 129287619#0 129287644#0 129287644#1 129287644#2 129287644#3 129287644#4 129287644#5 -129287644#5"/>
    <stop busStop="600" duration="10.00" until="10.00"/>
    <stop busStop="604" duration="10.00" until="110.00"/>
    <stop busStop="602" duration="10.00" until="210.00"/>
    <stop busStop="408" duration="10.00" until="310.00"/>
    <stop busStop="1208" duration="10.00" until="410.00"/>
    <stop busStop="1212" duration="10.00" until="510.00"/>
    <stop busStop="1116" duration="10.00" until="610.00"/>
    <stop busStop="1120" duration="10.00" until="710.00"/>
    <stop busStop="6232" duration="10.00" until="810.00"/>
    <stop busStop="6744" duration="10.00" until="910.00"/>
    <stop busStop="6748" duration="10.00" until="1010.00"/>
    <stop busStop="6752" duration="10.00" until="1110.00"/>
    <stop busStop="9472" duration="10.00" until="1210.00"/>
    <stop busStop="9476" duration="10.00" until="1310.00"/>
    <stop busStop="9478" duration="10.00" until="1410.00"/>
    <stop busStop="9482" duration="10.00" until="1510.00"/>
    <stop busStop="9484" duration="10.00" until="1610.00"/>
    <stop busStop="9488" duration="10.00" until="1710.00"/>
    <stop busStop="9492" duration="10.00" until="1810.00"/>
    <stop busStop="9496" duration="10.00" until="1910.00"/>
    <stop busStop="9700" duration="10.00" until="2010.00"/>
    <stop busStop="9704" duration="10.00" until="2110.00"/>
    <stop busStop="9708" duration="10.00" until="2210.00"/>
    <stop busStop="9712" duration="10.00" until="2310.00"/>
    <stop busStop="9714" duration="10.00" until="2410.00"/>
    <stop busStop="9718" duration="10.00" until="2510.00"/>
    <stop busStop="9726" duration="10.00" until="2610.00"/>
    <stop busStop="9734" duration="10.00" until="2710.00"/>
    <stop busStop="9738" duration="10.00" until="2810.00"/>
    <stop busStop="9735" duration="10.00" until="2910.00"/>
    <stop busStop="9750" duration="10.00" until="3010.00"/>
    <stop busStop="9758" duration="10.00" until="3110.00"/>
    <stop busStop="9766" duration="10.00" until="3210.00"/>
    <stop busStop="9774" duration="10.00" until="3310.00"/>
    <stop busStop="9799" duration="10.00" until="3410.00"/>
    <stop busStop="9797" duration="10.00" until="3510.00"/>
    <stop busStop="9776" duration="10.00" until="3610.00"/>
    <stop busStop="9793" duration="10.00" until="3710.00"/>
    <stop busStop="9780" duration="10.00" until="3810.00"/>
    <stop busStop="9784" duration="10.00" until="3910.00"/>
  </flow>
  <flow id="1001" type="bus" begin="0" end="7200" period="600" color="yellow" line="1001">
    <route edges="-129287644#5 -129287644#4 -129287644#3 -129287644#2 -129287644#1 -129287644#0 129287619#1 129287649#3 129287649#4 129287649#5 129287617#0 -188099579#7 -188099579#6 -188099579#5 188107662#0 188107662#1 188110304#0 188110304#1 188110305 -188105999#1 -188107662#3 -188107662#2 -188107662#1 -188107662#0 -188099579#4 -188099579#3 -188099579#2 -188099579#1 -188099579#0 -487866554#4 -487866554#3 -487866554#2 -487866554#1 -487866554#0 188099690#1 188099688#5 188099688#6 188099688#7 188099688#8 188099688#0 188099688#1 188099804#0 -188099806#8 -188099806#7 -188099806#6 -188099806#5 -188099806#4 -188099806#3 -188099806#2 -188099806#1 -188099806#0 -188099805#0 -133979910 -253384739#20 -253384739#19 -253384739#18 -253384739#17 -253384739#16 -253384739#15 -253384739#14 -253384739#13 -253384739#12 -253384739#11 -253384739#10 -253384739#9 -253384739#8 -253384739#7 -253384739#6 -253384739#5 -253384739#4 -253384739#3 -253384739#2 -253384739#1 -253384739#0 -129287621 -133979847#27 -133979847#26 -133979847#25 -133979847#24 -133979847#23 -133979847#22 -133979847#21 -133979847#20 -133979847#19 -133979847#18 -133979847#17 -133979847#16 -133979847#15 -133979847#14 -133979847#13 -133979847#12 -133979847#11 -133979847#10 -133979847#9 -133979847#8 -236381788#25 -236381788#24 -236381788#23 -236381788#22 -236381788#21 -236381788#20 -236381788#19 -236381788#18 -236381788#17 -236381788#16 236408645#0 236408689#0 -236408689#0 -236408645#0 236381788#16 236381788#17 236381788#18 236381788#19 236381788#20 236381788#21 236381788#22 236381788#23 236381788#24 236381788#25 -133979847#7 -133979847#6 -133979847#5 -133979847#4 -133979847#3 133979847#3 -133979847#3 -133979847#2 -133979847#1 -133979847#0 614989318 614989317#1 155245329#0 155245329#1 225316410 258044185#0 258044185#1 614989317#3 614989317#4 614989317#5 614989317#0 614989317#1 155245329#0 155245329#1 155245329#2 155348927#0 155348927#1 155348939#4 225239810#2 225239810#3 225239810#4 225239810#5 225239810#6 225239810#7 225239810#8 225239810#9 225239810#10 225239810#11 225239810#12 225239809 225239818#0 225239818#1 225239818#2 226871339 226871347 226871344 226871350#0 226871350#1 226871350#2 226871350#3 226871350#4 226871350#5 226871350#6 226871350#7 226871350#8 226871350#9 226871350#10 531825395 531825396#1 531825396#2 -258043596#0 -190095670#2 -190095670#1 -190095670#0 -190095669 -531827287 531827285 531827288#1 531827288#2 531827288#3 531827288#4 531827288#5 531827288#6 531827286 531827287 190095669 190095670#0 190095670#1 190095670#2 258043596#0 531825396#3 531825396#4 190095666 226871350#12 226871350#13 226871350#14 480308395#0 480308395#1 625427479#0 480301314#1 625427478#1 480308393#0 480308393#1 480308393#2 226871350#16 618339525#0 618339525#1 618339525#2 224154839#0 224154839#1 224154839#2 618339526 226871350#18 226871350#19 226871350#20 226871350#21 226871350#22 226871350#23 226871350#24 248802650 238096799#0 238096799#1 479760780 256138064 479760779#0 479760779#1 256138065#0 256138065#1 133050071#0 25935512#0 697205191#0 98377160#3 98377160#4 98377160#5 98377160#6 160009329#0 160009329#1 160009329#2 160009329#3 160009329#4 98377122#3 98377122#4 107737597 107737577#0 107737577#1 159999528 743390464#0 743390464#1 743390464#2 743390464#3 743390464#4 743390464#5 743390464#6 743390464#7 743390464#8 139102627#6 139102627#7 486459572 491249898#0 491249898#1 491249898#2 98377112#0 98377112#1 491249897 112052724#0 112052724#1 112052724#2 112052724#3 112052724#4 112052724#5 112052724#6 112052724#7 112052724#8 112052724#9 112052724#10 112052724#11 112052724#12 112052724#13 289140523 490422378 490422394 490422382 25936919#0 25936919#1 25936919#2 25936919#3 25936919#4 25936919#5 25936919#6 25936919#7 25936919#8 25936919#9 25936919#10 25936919#11 23807470 489628884 489628886#0 489628886#1 489628886#2 489628886#3 489628886#4 289141034 490717124#0 490717124#1 490717124#2 162568381 244281985 244281986#0 244281986#1 244281986#2 244281986#3 244281986#4 244281986#5 244281986#6 244281986#7 244281986#8 244281986#9 244281986#10 95601615 489670478#0 489670478#1 489670478#2 489670478#3 489670478#4 489670478#5 489670478#6 384472596 384472496#0 384472496#1 384472496#2 384472496#3 384472496#4 384472496#5 95601603#1 107337222#0 107337222#1 95601594 623589693#1 492650240 623589692 95601628 623589691#0 111614805#0 111614805#1 111614805#2 111614805#3 111614805#4 111614805#5 489632180#0 107195551 95475542#0 95475542#1 95475542#2 95475542#3 95475542#4 95475542#5 489630962#0 489630962#1 743379708#3 743379708#4 743379708#5 756094689 159050445#0 159050445#1 159050445#2 159050445#3 756094688 754143918#5 754143918#6 754143918#7 188147846#0 188147846#1 188147846#2 622907084#0 491197640#4 491197640#5 491197640#6 491197640#7 491197640#8 754143918#1 754143918#2 754143918#3 754143918#4 754143918#5 754143918#6 754143918#7 188147846#0 188147846#1 188147846#2 188147846#3 154054026#0 154054026#1 162657828 188147865 188147863 188147853#0 188147853#1 165487301#0 165487301#1 165487301#2 165487301#3 165487301#4 158194914#0 158194914#1 158194914#2 158194880#0 158194880#1"/>
    <stop busStop="9784" duration="10.00" until="10.00"/>
    <stop busStop="9792" duration="10.00" until="110.00"/>
    <stop busStop="9776" duration="10.00" until="210.00"/>
    <stop busStop="9796" duration="10.00" until="310.00"/>
    <stop busStop="9798" duration="10.00" until="410.00"/>
    <stop busStop="9775" duration="10.00" until="510.00"/>
    <stop busStop="9767" duration="10.00" until="610.00"/>
    <stop busStop="9759" duration="10.00" until="710.00"/>
    <stop busStop="9751" duration="10.00" until="810.00"/>
    <stop busStop="9734" duration="10.00" until="910.00"/>
    <stop busStop="9738" duration="10.00" until="1010.00"/>
    <stop busStop="9735" duration="10.00" until="1110.00"/>
    <stop busStop="9727" duration="10.00" until="1210.00"/>
    <stop busStop="9719" duration="10.00" until="1310.00"/>
    <stop busStop="9715" duration="10.00" until="1410.00"/>
    <stop busStop="9713" duration="10.00" until="1510.00"/>
    <stop busStop="9709" duration="10.00" until="1610.00"/>
    <stop busStop="9705" duration="10.00" until="1710.00"/>
    <stop busStop="9701" duration="10.00" until="1810.00"/>
    <stop busStop="9497" duration="10.00" until="1910.00"/>
    <stop busStop="9493" duration="10.00" until="2010.00"/>
    <stop busStop="9489" duration="10.00" until="2110.00"/>
    <stop busStop="9485" duration="10.00" until="2210.00"/>
    <stop busStop="9483" duration="10.00" until="2310.00"/>
    <stop busStop="9479" duration="10.00" until="2410.00"/>
    <stop busStop="9477" duration="10.00" until="2510.00"/>
    <stop busStop="9473" duration="10.00" until="2610.00"/>
    <stop busStop="7111" duration="10.00" until="2710.00"/>
    <stop busStop="5101" duration="10.00" until="2810.00"/>
    <stop busStop="33165" duration="10.00" until="2910.00"/>
    <stop busStop="33161" duration="10.00" until="3010.00"/>
    <stop busStop="3353" duration="10.00" until="3110.00"/>
    <stop busStop="3349" duration="10.00" until="3210.00"/>
    <stop busStop="3345" duration="10.00" until="3310.00"/>
    <stop busStop="6441" duration="10.00" until="3410.00"/>
    <stop busStop="6437" duration="10.00" until="3510.00"/>
    <stop busStop="2125" duration="10.00" until="3610.00"/>
    <stop busStop="2121" duration="10.00" until="3710.00"/>
    <stop busStop="2117" duration="10.00" until="3810.00"/>
    <stop busStop="1313" duration="10.00" until="3910.00"/>
    <stop busStop="1505" duration="10.00" until="4010.00"/>
    <stop busStop="601" duration="10.00" until="4110.00"/>
    <stop busStop="600" duration="10.00" until="4210.00"/>
  </flow>
  <flow id="10010" type="bus" begin="0" end="7200" period="600" color="yellow" line="10010">
    <route edges="158194880#1 158194912 158195022 58974277 58974276#0 58974276#1 58974276#2 659833033 492229540#1 492229540#2 491706848 95475498#5 158426437#0 158426437#1 158426437#2 158748997 158748998#0 -235084921#1 -235084921#0 -235084920#1 235084923#0 685225992 188147840#5 188147840#6 188147840#7 158426437#2 158426437#3 158426437#4 158426437#5 158426437#6 158426437#7 158426437#0 95475538#0 95475538#1 95475538#2 154054008#0 154054008#1 162657808 188147868 188147860 188147849#0 188147849#1 188147849#2 111614727#0 111614727#1 158426573 158426195#0 158426195#1 158426210#0 158426210#1 95475488#0 95475488#1 165499568#0 165499568#1 165499568#2 165499568#3 165499568#4 165499568#5 165499568#6 165499568#7 165499568#8 25991813 491786600 158194852#0 158194852#1 158194852#2 158194852#3 158194852#4 158194852#5 190323552 158194945#3 158194913#1 158194913#2 158194852#8 158194852#9 158194852#10 158194852#11 158194852#12 158194852#13 485210457 492425102 492425101 492425100 492425099 492425098 485210460 -25991628#2 -25991628#1 -25991628#0 485213306 492425091 190323579 492425090 485213303 111738509#0 111738509#1 111738509#2 111738509#3 111738509#4 111738509#5 -111738509#5 111738509#5 111738509#6 -158194879#8 -158194879#7 -158194879#6 -158194879#5 158194879#5 -158194879#5 -158194879#4 -158194879#3 -158194879#2 -158194879#1 -158194879#0 158194868 160113987 158426734 25991598#0 25991598#1 25991598#2 162072481 188531101 188531095 162072482 158426507#0 158426507#1 160113769#0 160113769#1 160113769#2 25948293#0 25948293#1 25948293#2 492425088 492425113 25948299#0 25948299#1 25948299#2 25948299#3 25948299#4 25948299#5 492425106 187482413 623571616#0 623571616#1 -26003916#13 -26003916#12 -26003916#11 -26003916#10 -26003916#9 -26003916#8 -26003916#7 -26003916#6 -26003916#5 -26003916#4 -26003916#3 -26003916#2 -26003916#1 -26003916#0 -95186916#2 -95186916#1 -95186916#0 488057669 492425104 165499575#0 165499575#1 165499575#2 165499575#3 165499575#4 165499575#5 165499575#6 165499575#7 165499575#8 165499575#9 165499575#10 165499575#11 165499575#12 165499575#13 165499575#14 103987775 154722236 187482437 187482451 188822635 187490897 176155596#0 176155596#1 176155596#2 176155596#3 176155596#4 176155596#5 176155596#6 176155596#7 176155596#8 176155596#9 176155596#10 176155596#11 176155596#12 176155596#13 479085491#0 479085490 479085491#3 176155596#16 176155596#17 176155596#18 176155596#19 176155596#20 176155596#21 176155596#22 488345109#0 488345109#1 488345109#2 488345109#3 488345109#4 479822480#0 479822480#1 479822480#2 365935239#0 365935239#1 365935239#2 365935239#3 365935239#4 365935239#5 365935239#6 365935239#7 365935239#8 365935239#9 488505713#2 488505713#3 488505713#4 488505713#5 488505713#6 488505711#0 488505711#1 616720492 206082856#1 616720493 488505711#3 318294612 492022522 479817721#0 479817721#1 492022524#2 658648447 658648444 -658648444 658648445 492022524#4 492022524#5 492022524#6 524476004#0 616810039#0 616810039#1 518985891 527621257 521092735#0 521092735#1 480280481 492031715 519457136#1 456794634 206329222#4 206329222#5 206329222#0 206329222#1 206331947#0 206331947#1 206331947#2 214220671 -214220670#1 -214220670#0 206333005#1 206331956#4 206331956#5 206331956#6 206331956#7 206329222#1 206329222#2 456794633 519457136#3 519457134#0 519457134#1 519457134#2 480285108#7 527617949 527617948 480285106#0 480285106#1 480285106#2 480285106#3 480285106#4 480285106#5 480285106#6 480285106#7 480285106#8 480285106#9 480285106#10 480285106#11 480285106#12 480285106#13 480285106#14 480285106#15 479822479#0 479822479#1 479821359#0 479821359#1 479821359#2 206486732#0 206486732#1 206486732#2 206486732#3 206486732#4 206486732#5 206486732#6 206486732#7 206486732#8 206486732#9 206486732#10 206486732#11 479819957#6 479819957#7 479819957#8 479819957#9 322569104 87826059#2 87826059#3 87826059#4 87826059#5 87826059#6 87826059#7 87826059#8 87826059#9 87826059#10 87826059#11 488345108#2 488345108#3 488345108#4 488345108#5 488345905 176155596#11 176155596#12 176155596#13 176155596#14 488509914#0 488509914#1 635944737#1 176155596#19 488509911#2 635944744 488509922 488345108#4 488345108#5 488345108#6 488345108#7 488345108#8 488345108#9 488345108#10 488345108#11 133958421#0 133958421#1 133958421#2 133958421#3 133958421#4 154722233#0 154722233#1 176155596#0 176155596#1 176155596#2 176155596#3 176155596#4 176155596#5 488345906#0 619553810 488345108#10 488345108#11 133958421#0 133958421#1 133958421#2 133958421#3 133958421#4 154722233#0 163699985 187482446 188822633 187490894#0 187490894#1 106548184 158194860#0 158194860#1 488274800 488274801 158194860#3 158194860#4 158194860#5 158194860#6 158194860#7 107456602 158194858#2 106548183 158194860#9 488276336 95186730#0 95186730#1 95186730#2 95186730#3 95186730#4 95186730#5 -488091218#10 -488091218#9 -488091218#8 -488091218#7 -488091218#6 -488091218#5 -488091218#4 -488091218#3 -488091218#2 -488091218#1 -488091218#0 361643887#0 361643887#1 361643887#2 492425088 492425087#0 492425087#1 492425087#2 158194864#0 158194864#1 158194877#0 158194877#1 158194877#2 158194877#3 162072480 188531097 188531099 162072483 25991592#0 25991592#1 25991592#2 158194977#0 158194977#1 158194867 158194879#0 158194879#1 158194879#2 158194879#3 158194879#4 158194879#5 158194879#6 158194879#7 158194879#8 -111738509#6 -111738509#5 -111738509#4 -111738509#3 -111738509#2 -111738509#1 -111738509#0 485213302 492425095 492425094 492425093 485213307 25991628#0 25991628#1 25991628#2 485210459 25991642 485210458 -158194852#13 -158194852#12 -158194852#11 -158194852#10 -158194852#9 -158194852#8 -158194852#7 -158194852#6 -158194852#5 -158194852#4 -158194852#3 -158194852#2 -158194852#1 -158194852#0 -491786600 -25991813 165499569#0 -258216276#2 -190323575#4 -190323575#3 -190323575#2 -190323575#1 111614700#7 479804705 165499568#5 165499568#6 165499568#7 165499568#8 25991813 491786599 158194853#0 158194853#1 158194853#2 158194853#3 158194853#4 158194853#5 158194853#6 158195063 162657830 188266563 188266564 158194824#0 158194824#1 158194824#2 491190428 115738581#2 115738581#3 115738581#4 115738581#5 115738581#6 158194824#6 158194824#7 162657797 95475501 188147852 188147853#0 188147853#1 165487301#0 165487301#1 165487301#2 165487301#3 165487301#4 158194914#0 158194914#1 158194914#2 158194880#0 158194880#1"/>
    <stop busStop="600" duration="10.00" until="10.00"/>
    <stop busStop="604" duration="10.00" until="110.00"/>
    <stop busStop="602" duration="10.00" until="210.00"/>
    <stop busStop="1508" duration="10.00" until="310.00"/>
    <stop busStop="1520" duration="10.00" until="410.00"/>
    <stop busStop="2524" duration="10.00" until="510.00"/>
    <stop busStop="2526" duration="10.00" until="610.00"/>
    <stop busStop="2528" duration="10.00" until="710.00"/>
    <stop busStop="2532" duration="10.00" until="810.00"/>
    <stop busStop="2536" duration="10.00" until="910.00"/>
    <stop busStop="4244" duration="10.00" until="1010.00"/>
    <stop busStop="4246" duration="10.00" until="1110.00"/>
    <stop busStop="4252" duration="10.00" until="1210.00"/>
    <stop busStop="4256" duration="10.00" until="1310.00"/>
    <stop busStop="4260" duration="10.00" until="1410.00"/>
    <stop busStop="4264" duration="10.00" until="1510.00"/>
    <stop busStop="42268" duration="10.00" until="1610.00"/>
    <stop busStop="44448" duration="10.00" until="1710.00"/>
    <stop busStop="44452" duration="10.00" until="1810.00"/>
    <stop busStop="44456" duration="10.00" until="1910.00"/>
    <stop busStop="46664" duration="10.00" until="2010.00"/>
    <stop busStop="46666" duration="10.00" until="2110.00"/>
    <stop busStop="50500" duration="10.00" until="2310.00"/>
    <stop busStop="99402" duration="10.00" until="2410.00"/>
    <stop busStop="99400" duration="10.00" until="2510.00"/>
    <stop busStop="46668" duration="10.00" until="2710.00"/>
    <stop busStop="46672" duration="10.00" until="2810.00"/>
    <stop busStop="46676" duration="10.00" until="2910.00"/>
    <stop busStop="46680" duration="10.00" until="3010.00"/>
    <stop busStop="46679" duration="10.00" until="3110.00"/>
    <stop busStop="46675" duration="10.00" until="3210.00"/>
    <stop busStop="46671" duration="10.00" until="3310.00"/>
    <stop busStop="44467" duration="10.00" until="3410.00"/>
    <stop busStop="44463" duration="10.00" until="3510.00"/>
    <stop busStop="44459" duration="10.00" until="3610.00"/>
    <stop busStop="4172" duration="10.00" until="3710.00"/>
    <stop busStop="4176" duration="10.00" until="3810.00"/>
    <stop busStop="4180" duration="10.00" until="3910.00"/>
    <stop busStop="4241" duration="10.00" until="4010.00"/>
    <stop busStop="2637" duration="10.00" until="4110.00"/>
    <stop busStop="2633" duration="10.00" until="4210.00"/>
    <stop busStop="2529" duration="10.00" until="4310.00"/>
    <stop busStop="2527" duration="10.00" until="4410.00"/>
    <stop busStop="2525" duration="10.00" until="4510.00"/>
    <stop busStop="2521" duration="10.00" until="4610.00"/>
    <stop busStop="2519" duration="10.00" until="4710.00"/>
    <stop busStop="1609" duration="10.00" until="4810.00"/>
    <stop busStop="601" duration="10.00" until="4910.00"/>
    <stop busStop="600" duration="10.00" until="5010.00"/>
  </flow>
  <flow id="10020" type="bus" begin="0" end="7200" period="600" color="yellow" line="10020">
    <route edges="206331947#2 214220671 -214220670#1 -214220670#0 206333005#1 206331956#4 206331956#5 206331956#6 206331956#7 206329222#1 206329222#2 456794633 519457136#3 519457134#0 519457134#1 519457134#2 480285108#7 527617949 527617948 480285106#0 480285106#1 480285106#2 480285106#3 480285106#4 480285106#5 480285106#6 480285106#7 480285106#8 480285106#9 480285106#10 480285106#11 480285106#12 480285106#13 480285106#14 480285106#15 479822479#0 479822479#1 479821359#0 479821359#1 479821359#2 206486732#0 206486732#1 206486732#2 206486732#3 206486732#4 206486732#5 206486732#6 206486732#7 206486732#8 206486732#9 206486732#10 206486732#11 479819957#6 479819957#7 479819957#8 479819957#9 322569104 87826059#2 87826059#3 87826059#4 87826059#5 87826059#6 87826059#7 87826059#8 87826059#9 87826059#10 87826059#11 488345108#2 488345108#3 488345108#4 488345108#5 488345905 176155596#11 176155596#12 176155596#13 176155596#14 488509914#0 488509914#1 635944737#1 176155596#19 488509911#2 635944744 488509922 488345108#4 488345108#5 488345108#6 488345108#7 488345108#8 488345108#9 488345108#10 488345108#11 133958421#0 133958421#1 133958421#2 133958421#3 133958421#4 154722233#0 154722233#1 176155596#0 176155596#1 176155596#2 176155596#3 176155596#4 176155596#5 488345906#0 619553810 488345108#10 488345108#11 133958421#0 133958421#1 133958421#2 133958421#3 133958421#4 154722233#0 163699985 187482446 188822633 187490894#0 187490894#1 106548184 158194860#0 158194860#1 488274800 488274801 158194860#3 158194860#4 158194860#5 158194860#6 158194860#7 107456602 158194858#2 106548183 158194860#9 488276336 95186730#0 95186730#1 95186730#2 95186730#3 95186730#4 95186730#5 -488091218#10 -488091218#9 -488091218#8 -488091218#7 -488091218#6 -488091218#5 -488091218#4 -488091218#3 -488091218#2 -488091218#1 -488091218#0 361643887#0 361643887#1 361643887#2 492425088 492425087#0 492425087#1 492425087#2 158194864#0 158194864#1 158194877#0 158194877#1 158194877#2 158194877#3 162072480 188531097 188531099 162072483 25991592#0 25991592#1 25991592#2 158194977#0 158194977#1 158194867 158194879#0 158194879#1 158194879#2 158194879#3 158194879#4 158194879#5 158194879#6 158194879#7 158194879#8 -111738509#6 -111738509#5 -111738509#4 -111738509#3 -111738509#2 -111738509#1 -111738509#0 485213302 492425095 492425094 492425093 485213307 25991628#0 25991628#1 25991628#2 485210459 25991642 485210458 -158194852#13 -158194852#12 -158194852#11 -158194852#10 -158194852#9 -158194852#8 -158194852#7 -158194852#6 -158194852#5 -158194852#4 -158194852#3 -158194852#2 -158194852#1 -158194852#0 -491786600 -25991813 165499569#0 -258216276#2 -190323575#4 -190323575#3 -190323575#2 -190323575#1 111614700#7 479804705 165499568#5 165499568#6 165499568#7 165499568#8 25991813 491786599 158194853#0 158194853#1 158194853#2 158194853#3 158194853#4 158194853#5 158194853#6 158195063 162657830 188266563 188266564 158194824#0 158194824#1 158194824#2 491190428 115738581#2 115738581#3 115738581#4 115738581#5 115738581#6 158194824#6 158194824#7 162657797 95475501 188147852 188147853#0 188147853#1 165487301#0 165487301#1 165487301#2 165487301#3 165487301#4 158194914#0 158194914#1 158194914#2 158194880#0 158194880#1"/>
    <stop busStop="99402" duration="10.00" until="10.00"/>
    <stop busStop="99400" duration="10.00" until="110.00"/>
    <stop busStop="46668" duration="10.00" until="310.00"/>
    <stop busStop="46672" duration="10.00" until="410.00"/>
    <stop busStop="46676" duration="10.00" until="510.00"/>
    <stop busStop="46680" duration="10.00" until="610.00"/>
    <stop busStop="46679" duration="10.00" until="710.00"/>
    <stop busStop="46675" duration="10.00" until="810.00"/>
    <stop busStop="46671" duration="10.00" until="910.00"/>
    <stop busStop="44467" duration="10.00" until="1010.00"/>
    <stop busStop="44463" duration="10.00" until="1110.00"/>
    <stop busStop="44459" duration="10.00" until="1210.00"/>
    <stop busStop="4172" duration="10.00" until="1310.00"/>
    <stop busStop="4176" duration="10.00" until="1410.00"/>
    <stop busStop="4180" duration="10.00" until="1510.00"/>
    <stop busStop="4241" duration="10.00" until="1610.00"/>
    <stop busStop="2637" duration="10.00" until="1710.00"/>
    <stop busStop="2633" duration="10.00" until="1810.00"/>
    <stop busStop="2529" duration="10.00" until="1910.00"/>