<?xml version="1.0" encoding="UTF-8"?>
<!-- generated on 2020-02-17 11:39:22.655000 by $Id$
  options: -n ..\maps\qatar_bus.net.xml -a additional3.xml -o generated -e 7200 -v <doubleminus>persontrips
-->
<routes xmlns:xsi="http://www.w3.org/2001/XMLSchema-instance" xsi:noNamespaceSchemaLocation="http://sumo.dlr.de/xsd/routes_file.xsd">
    <person id="0" depart="0.00">
        <personTrip from="-727565217#0" to="-178612705#1"/>
    </person>
    <person id="1" depart="1.00">
        <personTrip from="-708647199#14" to="322565318#1"/>
    </person>
    <person id="2" depart="2.00">
        <personTrip from="-256253758#0" to="624793562#6"/>
    </person>
    <person id="3" depart="3.00">
        <personTrip from="-160025391#1" to="-668923032"/>
    </person>
    <person id="4" depart="4.00">
        <personTrip from="102029453#2" to="25937286"/>
    </person>
    <person id="5" depart="5.00">
        <personTrip from="-248820740#2" to="158632413#2"/>
    </person>
    <person id="6" depart="6.00">
        <personTrip from="-480272820" to="229169470#0"/>
    </person>
    <person id="7" depart="7.00">
        <personTrip from="-256253746#2" to="250878756"/>
    </person>
    <person id="8" depart="8.00">
        <personTrip from="-474927464#2" to="213495039#0"/>
    </person>
    <person id="9" depart="9.00">
        <personTrip from="25947695#2" to="121901915#2"/>
    </person>
    <person id="10" depart="10.00">
        <personTrip from="531565494#9" to="229133890#1"/>
    </person>
    <person id="11" depart="11.00">
        <personTrip from="25943112#2" to="-475325681#0"/>
    </person>
    <person id="12" depart="12.00">
        <personTrip from="-708888687" to="239734217"/>
    </person>
    <person id="13" depart="13.00">
        <personTrip from="273615477" to="206290689#2"/>
    </person>
    <person id="14" depart="14.00">
        <personTrip from="-301158318#0" to="-479772404#0"/>
    </person>
    <person id="15" depart="15.00">
        <personTrip from="531744333#5" to="-25952892#3"/>
    </person>
    <person id="16" depart="16.00">
        <personTrip from="256042773#1" to="-480306308#0"/>
    </person>
    <person id="17" depart="17.00">
        <personTrip from="-475962734" to="26007035"/>
    </person>
    <person id="18" depart="18.00">
        <personTrip from="238448177" to="195430373#8"/>
    </person>
    <person id="19" depart="19.00">
        <personTrip from="622917695#7" to="321095697"/>
    </person>
    <person id="20" depart="20.00">
        <personTrip from="235374026#0" to="228254267#0"/>
    </person>
    <person id="21" depart="21.00">
        <personTrip from="165499608#2" to="-245759498#0"/>
    </person>
    <person id="22" depart="22.00">
        <personTrip from="224060215#5" to="323919711#1"/>
    </person>
    <person id="23" depart="23.00">
        <personTrip from="531494107#4" to="156617140#3"/>
    </person>
    <person id="24" depart="24.00">
        <personTrip from="-668923027" to="-207582301#1"/>
    </person>
    <person id="25" depart="25.00">
        <personTrip from="-479759497#1" to="-419454602#0"/>
    </person>
    <person id="26" depart="26.00">
        <personTrip from="255416197#0" to="538090661"/>
    </person>
    <person id="27" depart="27.00">
        <personTrip from="658330843" to="25934148#10"/>
    </person>
    <person id="28" depart="28.00">
        <personTrip from="189083837#0" to="475174523#1"/>
    </person>
    <person id="29" depart="29.00">
        <personTrip from="-194774560#2" to="524130478#5"/>
    </person>
    <person id="30" depart="30.00">
        <personTrip from="475328820#1" to="490770511#0"/>
    </person>
    <person id="31" depart="31.00">
        <personTrip from="480264266#1" to="155313307"/>
    </person>
    <person id="32" depart="32.00">
        <personTrip from="258038066#1" to="486600574#0"/>
    </person>
    <person id="33" depart="33.00">
        <personTrip from="323914603" to="178612703#1"/>
    </person>
    <person id="34" depart="34.00">
        <personTrip from="188107099#1" to="103931311#0"/>
    </person>
    <person id="35" depart="35.00">
        <personTrip from="479797330#2" to="-224221200#4"/>
    </person>
    <person id="36" depart="36.00">
        <personTrip from="-480305141#2" to="-257077774#0"/>
    </person>
    <person id="37" depart="37.00">
        <personTrip from="193581564" to="-480305152#2"/>
    </person>
    <person id="38" depart="38.00">
        <personTrip from="-235369893#2" to="475908263"/>
    </person>
    <person id="39" depart="39.00">
        <personTrip from="228135832#0" to="-178774225#1"/>
    </person>
    <person id="40" depart="40.00">
        <personTrip from="620935108" to="-347966328#1"/>
    </person>
    <person id="41" depart="41.00">
        <personTrip from="113815021#9" to="-487802493#1"/>
    </person>
    <person id="42" depart="42.00">
        <personTrip from="-475959321#4" to="-255359297#1"/>
    </person>
    <person id="43" depart="43.00">
        <personTrip from="487826255" to="-718190346#1"/>
    </person>
    <person id="44" depart="44.00">
        <personTrip from="479811470" to="245395991#2"/>
    </person>
    <person id="45" depart="45.00">
        <personTrip from="321063054#1" to="226922384#0"/>
    </person>
    <person id="46" depart="46.00">
        <personTrip from="-658066913#3" to="479811446#0"/>
    </person>
    <person id="47" depart="47.00">
        <personTrip from="-658340812" to="-245399170#1"/>
    </person>
    <person id="48" depart="48.00">
        <personTrip from="-25934942#4" to="-475904402#4"/>
    </person>
    <person id="49" depart="49.00">
        <personTrip from="475954053" to="-153941746#5"/>
    </person>
    <person id="50" depart="50.00">
        <personTrip from="-255235404#5" to="206331948#1"/>
    </person>
    <person id="51" depart="51.00">
        <personTrip from="696723263#0" to="156151499"/>
    </person>
    <person id="52" depart="52.00">
        <personTrip from="475385866#1" to="-248764831#2"/>
    </person>
    <person id="53" depart="53.00">
        <personTrip from="-623602582" to="658334177#3"/>
    </person>
    <person id="54" depart="54.00">
        <personTrip from="159999513" to="-26178086#4"/>
    </person>
    <person id="55" depart="55.00">
        <personTrip from="-155156302#1" to="697202439"/>
    </person>
    <person id="56" depart="56.00">
        <personTrip from="625154535" to="-743007115"/>
    </person>
    <person id="57" depart="57.00">
        <personTrip from="178570050#2" to="-239059314#2"/>
    </person>
    <person id="58" depart="58.00">
        <personTrip from="156154382#1" to="26002584"/>
    </person>
    <person id="59" depart="59.00">
        <personTrip from="709776095#11" to="-224218695#3"/>
    </person>
    <person id="60" depart="60.00">
        <personTrip from="617237579" to="-757391556#0"/>
    </person>
    <person id="61" depart="61.00">
        <personTrip from="-154907649" to="-479621072#0"/>
    </person>
    <person id="62" depart="62.00">
        <personTrip from="-537525652#13" to="-570705144#1"/>
    </person>
    <person id="63" depart="63.00">
        <personTrip from="-88297183" to="475380780"/>
    </person>
    <person id="64" depart="64.00">
        <personTrip from="-718325112#5" to="688881088#1"/>
    </person>
    <person id="65" depart="65.00">
        <personTrip from="-475396857#0" to="158816599#1"/>
    </person>
    <person id="66" depart="66.00">
        <personTrip from="-255111351#2" to="531779314#0"/>
    </person>
    <person id="67" depart="67.00">
        <personTrip from="-245404429#0" to="-153940274#2"/>
    </person>
    <person id="68" depart="68.00">
        <personTrip from="613954674#2" to="-480271147#2"/>
    </person>
    <person id="69" depart="69.00">
        <personTrip from="160229519#3" to="531776540#2"/>
    </person>
    <person id="70" depart="70.00">
        <personTrip from="488553652" to="-490991944#1"/>
    </person>
    <person id="71" depart="71.00">
        <personTrip from="658360314#3" to="-479807649#0"/>
    </person>
    <person id="72" depart="72.00">
        <personTrip from="492425109#2" to="624477570"/>
    </person>
    <person id="73" depart="73.00">
        <personTrip from="-475167463" to="-25934522#3"/>
    </person>
    <person id="74" depart="74.00">
        <personTrip from="-538011668#3" to="-25934519#1"/>
    </person>
    <person id="75" depart="75.00">
        <personTrip from="625377295" to="229169417#2"/>
    </person>
    <person id="76" depart="76.00">
        <personTrip from="-237662681#6" to="-480275713#0"/>
    </person>
    <person id="77" depart="77.00">
        <personTrip from="322579189" to="538045319#0"/>
    </person>
    <person id="78" depart="78.00">
        <personTrip from="154027153#2" to="-624552599#1"/>
    </person>
    <person id="79" depart="79.00">
        <personTrip from="-177998729#28" to="245832156#2"/>
    </person>
    <person id="80" depart="80.00">
        <personTrip from="150382004#3" to="635944765#2"/>
    </person>
    <person id="81" depart="81.00">
        <personTrip from="321450150" to="-480524968#0"/>
    </person>
    <person id="82" depart="82.00">
        <personTrip from="-624527997#2" to="-196178917#2"/>
    </person>
    <person id="83" depart="83.00">
        <personTrip from="223677022#0" to="-25977393#1"/>
    </person>
    <person id="84" depart="84.00">
        <personTrip from="-475325713#1" to="-258030785#12"/>
    </person>
    <person id="85" depart="85.00">
        <personTrip from="161422695" to="-25952855#2"/>
    </person>
    <person id="86" depart="86.00">
        <personTrip from="625334368#1" to="480255692#1"/>
    </person>
    <person id="87" depart="87.00">
        <personTrip from="475321902#2" to="-322034914#7"/>
    </person>
    <person id="88" depart="88.00">
        <personTrip from="-165287957#0" to="-696491555#2"/>
    </person>
    <person id="89" depart="89.00">
        <personTrip from="480271147#1" to="742331143#7"/>
    </person>
    <person id="90" depart="90.00">
        <personTrip from="250286620" to="620715905"/>
    </person>
    <person id="91" depart="91.00">
        <personTrip from="389925562#2" to="176888474#4"/>
    </person>
    <person id="92" depart="92.00">
        <personTrip from="-479614295#4" to="146659957#2"/>
    </person>
    <person id="93" depart="93.00">
        <personTrip from="480318140" to="208693610#4"/>
    </person>
    <person id="94" depart="94.00">
        <personTrip from="-475904417#1" to="754143920"/>
    </person>
    <person id="95" depart="95.00">
        <personTrip from="323048416" to="618629708#16"/>
    </person>
    <person id="96" depart="96.00">
        <personTrip from="397468174#2" to="-489611780#0"/>
    </person>
    <person id="97" depart="97.00">
        <personTrip from="180288176#0" to="-177950903#0"/>
    </person>
    <person id="98" depart="98.00">
        <personTrip from="253394931" to="-26002795#5"/>
    </person>
    <person id="99" depart="99.00">
        <personTrip from="-487459418#0" to="25991633#2"/>
    </person>
    <person id="100" depart="100.00">
        <personTrip from="617468069#1" to="-256148029"/>
    </person>
    <person id="101" depart="101.00">
        <personTrip from="156805086#1" to="178755703#0"/>
    </person>
    <person id="102" depart="102.00">
        <personTrip from="323910238" to="-658197555"/>
    </person>
    <person id="103" depart="103.00">
        <personTrip from="-178755710" to="-153991072#1"/>
    </person>
    <person id="104" depart="104.00">
        <personTrip from="419454622#3" to="-475174567#0"/>
    </person>
    <person id="105" depart="105.00">
        <personTrip from="245928179#3" to="212448963#9"/>
    </person>
    <person id="106" depart="106.00">
        <personTrip from="-191986317#10" to="321070780#2"/>
    </person>
    <person id="107" depart="107.00">
        <personTrip from="180327430#0" to="156148405"/>
    </person>
    <person id="108" depart="108.00">
        <personTrip from="26010433#2" to="323164924#1"/>
    </person>
    <person id="109" depart="109.00">
        <personTrip from="-703301535#6" to="491711495"/>
    </person>
    <person id="110" depart="110.00">
        <personTrip from="531734646" to="321078834#1"/>
    </person>
    <person id="111" depart="111.00">
        <personTrip from="488338981#1" to="223539477#1"/>
    </person>
    <person id="112" depart="112.00">
        <personTrip from="-480275718" to="548138404#1"/>
    </person>
    <person id="113" depart="113.00">
        <personTrip from="-255425269#1" to="718465787#1"/>
    </person>
    <person id="114" depart="114.00">
        <personTrip from="492147776#3" to="246735927#1"/>
    </person>
    <person id="115" depart="115.00">
        <personTrip from="699368330#3" to="245584621#1"/>
    </person>
    <person id="116" depart="116.00">
        <personTrip from="-321065919#2" to="665933297"/>
    </person>
    <person id="117" depart="117.00">
        <personTrip from="153947275#1" to="480272823"/>
    </person>
    <person id="118" depart="118.00">
        <personTrip from="161640140#1" to="214184106"/>
    </person>
    <person id="119" depart="119.00">
        <personTrip from="-25932254#4" to="480231807"/>
    </person>
    <person id="120" depart="120.00">
        <personTrip from="-486656264#1" to="625133382"/>
    </person>
    <person id="121" depart="121.00">
        <personTrip from="489611780#1" to="658367266"/>
    </person>
    <person id="122" depart="122.00">
        <personTrip from="-255579825#1" to="-301158306#1"/>
    </person>
    <person id="123" depart="123.00">
        <personTrip from="-188106000#1" to="-531565492#0"/>
    </person>
    <person id="124" depart="124.00">
        <personTrip from="480279408#0" to="25982429#0"/>
    </person>
    <person id="125" depart="125.00">
        <personTrip from="-323904755#3" to="160025259#6"/>
    </person>
    <person id="126" depart="126.00">
        <personTrip from="-26137664#1" to="-625351518#0"/>
    </person>
    <person id="127" depart="127.00">
        <personTrip from="617500860#2" to="158470154#1"/>
    </person>
    <person id="128" depart="128.00">
        <personTrip from="-658628741#1" to="491213452#10"/>
    </person>
    <person id="129" depart="129.00">
        <personTrip from="222111197#4" to="155988290#0"/>
    </person>
    <person id="130" depart="130.00">
        <personTrip from="-625409391" to="322034924#3"/>
    </person>
    <person id="131" depart="131.00">
        <personTrip from="-228526521#0" to="-475321925#0"/>
    </person>
    <person id="132" depart="132.00">
        <personTrip from="-479809064" to="521217260"/>
    </person>
    <person id="133" depart="133.00">
        <personTrip from="480315062" to="619273609#0"/>
    </person>
    <person id="134" depart="134.00">
        <personTrip from="156154365#1" to="475929016"/>
    </person>
    <person id="135" depart="135.00">
        <personTrip from="25948596#4" to="-480237249#1"/>
    </person>
    <person id="136" depart="136.00">
        <personTrip from="475916463" to="-619007883#0"/>
    </person>
    <person id="137" depart="137.00">
        <personTrip from="-708910385#0" to="150382013#2"/>
    </person>
    <person id="138" depart="138.00">
        <personTrip from="-224735444#1" to="153849740#2"/>
    </person>
    <person id="139" depart="139.00">
        <personTrip from="-25932069#0" to="-323074089#2"/>
    </person>
    <person id="140" depart="140.00">
        <personTrip from="617517813" to="624781666#3"/>
    </person>
    <person id="141" depart="141.00">
        <personTrip from="321065219#1" to="625105456"/>
    </person>
    <person id="142" depart="142.00">
        <personTrip from="-475163210#4" to="-25991806#0"/>
    </person>
    <person id="143" depart="143.00">
        <personTrip from="322565303#7" to="-107219357#4"/>
    </person>
    <person id="144" depart="144.00">
        <personTrip from="246115223" to="-488494811#1"/>
    </person>
    <person id="145" depart="145.00">
        <personTrip from="-245933961#2" to="753832776"/>
    </person>
    <person id="146" depart="146.00">
        <personTrip from="475928958#0" to="621556488"/>
    </person>
    <person id="147" depart="147.00">
        <personTrip from="235428054" to="479614272"/>
    </person>
    <person id="148" depart="148.00">
        <personTrip from="-532298947" to="621275387#2"/>
    </person>
    <person id="149" depart="149.00">
        <personTrip from="-195327063#0" to="322591743"/>
    </person>
    <person id="150" depart="150.00">
        <personTrip from="623227103" to="-191102749"/>
    </person>
    <person id="151" depart="151.00">
        <personTrip from="-621524080" to="236365687#7"/>
    </person>
    <person id="152" depart="152.00">
        <personTrip from="742692022" to="-475904441#1"/>
    </person>
    <person id="153" depart="153.00">
        <personTrip from="527665757#1" to="-253912159#0"/>
    </person>
    <person id="154" depart="154.00">
        <personTrip from="-256004431#1" to="-659848486#0"/>
    </person>
    <person id="155" depart="155.00">
        <personTrip from="-475904456" to="618291760#0"/>
    </person>
    <person id="156" depart="156.00">
        <personTrip from="-475911275#0" to="-480279771#2"/>
    </person>
    <person id="157" depart="157.00">
        <personTrip from="538037181#3" to="622780300#0"/>
    </person>
    <person id="158" depart="158.00">
        <personTrip from="614603311#1" to="256253754#3"/>
    </person>
    <person id="159" depart="159.00">
        <personTrip from="-479772643#0" to="-60893886#1"/>
    </person>
    <person id="160" depart="160.00">
        <personTrip from="246234215#0" to="625353479#5"/>
    </person>
    <person id="161" depart="161.00">
        <personTrip from="-157509013#1" to="-212441166"/>
    </person>
    <person id="162" depart="162.00">
        <personTrip from="-475956297#0" to="-743087606"/>
    </person>
    <person id="163" depart="163.00">
        <personTrip from="-162178705" to="475953837"/>
    </person>
    <person id="164" depart="164.00">
        <personTrip from="740004409" to="696416818"/>
    </person>
    <person id="165" depart="165.00">
        <personTrip from="-135936162#0" to="-491155412#10"/>
    </person>
    <person id="166" depart="166.00">
        <personTrip from="-474924857#1" to="614989338#3"/>
    </person>
    <person id="167" depart="167.00">
        <personTrip from="321066833#0" to="-161640017#5"/>
    </person>
    <person id="168" depart="168.00">
        <personTrip from="-755046960" to="624772403"/>
    </person>
    <person id="169" depart="169.00">
        <personTrip from="-480978414#0" to="178063586#0"/>
    </person>
    <person id="170" depart="170.00">
        <personTrip from="-479772988" to="-25930890#4"/>
    </person>
    <person id="171" depart="171.00">
        <personTrip from="191102752#1" to="-228254267#1"/>
    </person>
    <person id="172" depart="172.00">
        <personTrip from="238400909#0" to="207634996#3"/>
    </person>
    <person id="173" depart="173.00">
        <personTrip from="-489459182#3" to="-622831312#3"/>
    </person>
    <person id="174" depart="174.00">
        <personTrip from="-222036831" to="245394616#7"/>
    </person>
    <person id="175" depart="175.00">
        <personTrip from="321063824#1" to="-349910522"/>
    </person>
    <person id="176" depart="176.00">
        <personTrip from="152468518#0" to="25949162#2"/>
    </person>
    <person id="177" depart="177.00">
        <personTrip from="-301158294#5" to="153470335#1"/>
    </person>
    <person id="178" depart="178.00">
        <personTrip from="256239604#1" to="-606689705"/>
    </person>
    <person id="179" depart="179.00">
        <personTrip from="224001582#1" to="153201823#3"/>
    </person>
    <person id="180" depart="180.00">
        <personTrip from="-624777621" to="-618913763#0"/>
    </person>
    <person id="181" depart="181.00">
        <personTrip from="490977297#0" to="157072297#1"/>
    </person>
    <person id="182" depart="182.00">
        <personTrip from="665944007#6" to="419454615#9"/>
    </person>
    <person id="183" depart="183.00">
        <personTrip from="153940282#4" to="-189021628#3"/>
    </person>
    <person id="184" depart="184.00">
        <personTrip from="476108167#0" to="-258033449#3"/>
    </person>
    <person id="185" depart="185.00">
        <personTrip from="-239058774#0" to="-153924032#1"/>
    </person>
    <person id="186" depart="186.00">
        <personTrip from="-227900893" to="26002785#1"/>
    </person>
    <person id="187" depart="187.00">
        <personTrip from="165721284#1" to="157286667#0"/>
    </person>
    <person id="188" depart="188.00">
        <personTrip from="250295609#0" to="26009350#1"/>
    </person>
    <person id="189" depart="189.00">
        <personTrip from="-229169464#2" to="-158470150#0"/>
    </person>
    <person id="190" depart="190.00">
        <personTrip from="188133240#4" to="537525635#6"/>
    </person>
    <person id="191" depart="191.00">
        <personTrip from="323919699" to="208693700"/>
    </person>
    <person id="192" depart="192.00">
        <personTrip from="-480460978#3" to="-161231280#5"/>
    </person>
    <person id="193" depart="193.00">
        <personTrip from="486656280#9" to="230208621#4"/>
    </person>
    <person id="194" depart="194.00">
        <personTrip from="486621898#0" to="-531732429#3"/>
    </person>
    <person id="195" depart="195.00">
        <personTrip from="178205427#11" to="-370223197#16"/>
    </person>
    <person id="196" depart="196.00">
        <personTrip from="-322589369" to="-322817124#4"/>
    </person>
    <person id="197" depart="197.00">
        <personTrip from="158513046#3" to="-480264346"/>
    </person>
    <person id="198" depart="198.00">
        <personTrip from="274937539" to="658232913#3"/>
    </person>
    <person id="199" depart="199.00">
        <personTrip from="742024334#0" to="-573726472"/>
    </person>
    <person id="200" depart="200.00">
        <personTrip from="475925687#1" to="-161640356#3"/>
    </person>
    <person id="201" depart="201.00">
        <personTrip from="475928895#1" to="-246213738#3"/>
    </person>
    <person id="202" depart="202.00">
        <personTrip from="306438459#1" to="-256368367#1"/>
    </person>
    <person id="203" depart="203.00">
        <personTrip from="25937349#2" to="246219869"/>
    </person>
    <person id="204" depart="204.00">
        <personTrip from="256251104#4" to="491004286#1"/>
    </person>
    <person id="205" depart="205.00">
        <personTrip from="-153192010#2" to="-479807647"/>
    </person>
    <person id="206" depart="206.00">
        <personTrip from="696493899#0" to="-230255472#0"/>
    </person>
    <person id="207" depart="207.00">
        <personTrip from="-188738170#0" to="-475174580#1"/>
    </person>
    <person id="208" depart="208.00">
        <personTrip from="-25958415#1" to="-146575476#2"/>
    </person>
    <person id="209" depart="209.00">
        <personTrip from="197815216#24" to="-684135622#7"/>
    </person>
    <person id="210" depart="210.00">
        <personTrip from="158633643#0" to="479778839#0"/>
    </person>
    <person id="211" depart="211.00">
        <personTrip from="-180327412#1" to="223677022#3"/>
    </person>
    <person id="212" depart="212.00">
        <personTrip from="236040024#0" to="323144481"/>
    </person>
    <person id="213" depart="213.00">
        <personTrip from="474924803#3" to="-142038989#3"/>
    </person>
    <person id="214" depart="214.00">
        <personTrip from="234418107#5" to="696248543#1"/>
    </person>
    <person id="215" depart="215.00">
        <personTrip from="-489484162" to="255443164#1"/>
    </person>
    <person id="216" depart="216.00">
        <personTrip from="-206227407#1" to="-237438706#3"/>
    </person>
    <person id="217" depart="217.00">
        <personTrip from="-152622130#2" to="-658637954"/>
    </person>
    <person id="218" depart="218.00">
        <personTrip from="-729356503#3" to="252215602#0"/>
    </person>
    <person id="219" depart="219.00">
        <personTrip from="-718888668#0" to="479819931#0"/>
    </person>
    <person id="220" depart="220.00">
        <personTrip from="619237663" to="-322016192#2"/>
    </person>
    <person id="221" depart="221.00">
        <personTrip from="480282180" to="-479804041#0"/>
    </person>
    <person id="222" depart="222.00">
        <personTrip from="531768027#0" to="-206292872#0"/>
    </person>
    <person id="223" depart="223.00">
        <personTrip from="-624528407#0" to="154195874#1"/>
    </person>
    <person id="224" depart="224.00">
        <personTrip from="-255437794#0" to="658253802"/>
    </person>
    <person id="225" depart="225.00">
        <personTrip from="-658378537#2" to="-195186240#4"/>
    </person>
    <person id="226" depart="226.00">
        <personTrip from="-207701704#1" to="248819278"/>
    </person>
    <person id="227" depart="227.00">
        <personTrip from="742331206" to="-426532304#1"/>
    </person>
    <person id="228" depart="228.00">
        <personTrip from="620739317#3" to="621524075#2"/>
    </person>
    <person id="229" depart="229.00">
        <personTrip from="25931369#0" to="123373773#2"/>
    </person>
    <person id="230" depart="230.00">
        <personTrip from="-256346058#2" to="224735422#0"/>
    </person>
    <person id="231" depart="231.00">
        <personTrip from="-480239518" to="613148639"/>
    </person>
    <person id="232" depart="232.00">
        <personTrip from="479817421" to="623545513"/>
    </person>
    <person id="233" depart="233.00">
        <personTrip from="188099804#1" to="-475962776#0"/>
    </person>
    <person id="234" depart="234.00">
        <personTrip from="-245663071" to="533054188#5"/>
    </person>
    <person id="235" depart="235.00">
        <personTrip from="624769285#2" to="189172388#16"/>
    </person>
    <person id="236" depart="236.00">
        <personTrip from="-320755645" to="-180219070#0"/>
    </person>
    <person id="237" depart="237.00">
        <personTrip from="617467206" to="103002125#0"/>
    </person>
    <person id="238" depart="238.00">
        <personTrip from="-213212687#1" to="-235372082#1"/>
    </person>
    <person id="239" depart="239.00">
        <personTrip from="321063048#1" to="548137443#3"/>
    </person>
    <person id="240" depart="240.00">
        <personTrip from="-480284595#1" to="-480231839"/>
    </person>
    <person id="241" depart="241.00">
        <personTrip from="223970172" to="-659833977"/>
    </person>
    <person id="242" depart="242.00">
        <personTrip from="480305143#4" to="282483337#1"/>
    </person>
    <person id="243" depart="243.00">
        <personTrip from="248760552#0" to="347532950#1"/>
    </person>
    <person id="244" depart="244.00">
        <personTrip from="618629715" to="238434483#0"/>
    </person>
    <person id="245" depart="245.00">
        <personTrip from="190638662#2" to="-234971816#2"/>
    </person>
    <person id="246" depart="246.00">
        <personTrip from="-623893584#2" to="228435503"/>
    </person>
    <person id="247" depart="247.00">
        <personTrip from="480308712#2" to="667928199"/>
    </person>
    <person id="248" depart="248.00">
        <personTrip from="-228500551" to="480305172#1"/>
    </person>
    <person id="249" depart="249.00">
        <personTrip from="228173095#2" to="480284543#2"/>
    </person>
    <person id="250" depart="250.00">
        <personTrip from="-323920473" to="26143935#2"/>
    </person>
    <person id="251" depart="251.00">
        <personTrip from="245398569" to="95185507#3"/>
    </person>
    <person id="252" depart="252.00">
        <personTrip from="58993102#6" to="322576955"/>
    </person>
    <person id="253" depart="253.00">
        <personTrip from="743150054" to="624785094#2"/>
    </person>
    <person id="254" depart="254.00">
        <personTrip from="-571474231#4" to="480284480#1"/>
    </person>
    <person id="255" depart="255.00">
        <personTrip from="658336586#1" to="-153232547#2"/>
    </person>
    <person id="256" depart="256.00">
        <personTrip from="-25949036#6" to="189060687"/>
    </person>
    <person id="257" depart="257.00">
        <personTrip from="273615476#0" to="-206255332#2"/>
    </person>
    <person id="258" depart="258.00">
        <personTrip from="180327410#0" to="-478834675"/>
    </person>
    <person id="259" depart="259.00">
        <personTrip from="-25952854" to="25947930#2"/>
    </person>
    <person id="260" depart="260.00">
        <personTrip from="-531740564#2" to="224408404#0"/>
    </person>
    <person id="261" depart="261.00">
        <personTrip from="-95334104#0" to="625127212#1"/>
    </person>
    <person id="262" depart="262.00">
        <personTrip from="195430370" to="490749040#2"/>
    </person>
    <person id="263" depart="263.00">
        <personTrip from="-195327103#0" to="25929843#3"/>
    </person>
    <person id="264" depart="264.00">
        <personTrip from="-624444752#1" to="215081055#3"/>
    </person>
    <person id="265" depart="265.00">
        <personTrip from="658185944#5" to="490789767#2"/>
    </person>
    <person id="266" depart="266.00">
        <personTrip from="718190139#7" to="-475160005#3"/>
    </person>
    <person id="267" depart="267.00">
        <personTrip from="524110882#0" to="480301862#0"/>
    </person>
    <person id="268" depart="268.00">
        <personTrip from="-480316910#0" to="-475959436"/>
    </person>
    <person id="269" depart="269.00">
        <personTrip from="658243925#1" to="154043515"/>
    </person>
    <person id="270" depart="270.00">
        <personTrip from="479819033#1" to="480456568#2"/>
    </person>
    <person id="271" depart="271.00">
        <personTrip from="-479804014" to="113815006#1"/>
    </person>