<routes xmlns:xsi="http://www.w3.org/2001/XMLSchema-instance" xsi:noNamespaceSchemaLocation="http://sumo.dlr.de/xsd/routes_file.xsd">
  <vType id="bus" accel="2.6" decel="4.5" sigma="0" length="12" minGap="3" maxSpeed="70" color="1,1,0" guiShape="bus" personCapacity="25" vClass="bus"/>
  <flow id="110" line="110" color="1,1,0" begin="0" end="7200" period="100" type="bus" >
    <stop busStop="600" duration="30" until="10" />
    <stop busStop="604" duration="30" until="110" />
    <stop busStop="602" duration="30" until="210" />
    <stop busStop="1508" duration="30" until="310" />
    <stop busStop="2610" duration="30" until="410" />
    <stop busStop="2516" duration="30" until="510" />
    <stop busStop="2532" duration="30" until="610" />
    <stop busStop="2536" duration="30" until="710" />
    <stop busStop="4140" duration="30" until="810" />
    <stop busStop="4544" duration="30" until="910" />
    <stop busStop="4548" duration="30" until="1010" />
    <stop busStop="4552" duration="30" until="1110" />
    <stop busStop="4556" duration="30" until="1210" />
    <stop busStop="4560" duration="30" until="1310" />
    <stop busStop="4564" duration="30" until="1410" />
    <stop busStop="4572" duration="30" until="1510" />
    <stop busStop="4576" duration="30" until="1610" />
    <stop busStop="4580" duration="30" until="1710" />
    <stop busStop="4584" duration="30" until="1810" />
    <stop busStop="4588" duration="30" until="1910" />
    <stop busStop="4700" duration="30" until="2010" />
    <stop busStop="4704" duration="30" until="2110" />
    <stop busStop="4722" duration="30" until="2210" />
    <stop busStop="4730" duration="30" until="2310" />
    <stop busStop="4734" duration="30" until="2410" />
    <stop busStop="4738" duration="30" until="2510" />
    <stop busStop="4742" duration="30" until="2610" />
    <stop busStop="4746" duration="30" until="2710" />
    <stop busStop="4750" duration="30" until="2810" />
    <stop busStop="4754" duration="30" until="2910" />
    <stop busStop="4701" duration="30" until="3010" />
    <stop busStop="46669" duration="30" until="3110" />
    <stop busStop="44467" duration="30" until="3210" />
    <stop busStop="4589" duration="30" until="3310" />
    <stop busStop="4585" duration="30" until="3410" />
    <stop busStop="4581" duration="30" until="3510" />
    <stop busStop="4577" duration="30" until="3610" />
    <stop busStop="4573" duration="30" until="3710" />
    <stop busStop="4565" duration="30" until="3810" />
    <stop busStop="4561" duration="30" until="3910" />
    <stop busStop="4557" duration="30" until="4010" />
    <stop busStop="4553" duration="30" until="4110" />
    <stop busStop="4549" duration="30" until="4210" />
    <stop busStop="4545" duration="30" until="4310" />
    <stop busStop="4241" duration="30" until="4410" />
    <stop busStop="2637" duration="30" until="4510" />
    <stop busStop="2633" duration="30" until="4610" />
    <stop busStop="2617" duration="30" until="4710" />
    <stop busStop="2711" duration="30" until="4810" />
    <stop busStop="1609" duration="30" until="4910" />
    <stop busStop="601" duration="30" until="5010" />
    <stop busStop="999" duration="30" until="5110" />
  </flow>
  <flow id="120" line="120" color="1,1,0" begin="0" end="7200" period="100" type="bus" >
    <stop busStop="600" duration="30" until="10" />
    <stop busStop="604" duration="30" until="110" />
    <stop busStop="602" duration="30" until="210" />
    <stop busStop="1508" duration="30" until="310" />
    <stop busStop="1520" duration="30" until="410" />
    <stop busStop="2524" duration="30" until="510" />
    <stop busStop="2526" duration="30" until="610" />
    <stop busStop="2528" duration="30" until="710" />
    <stop busStop="2532" duration="30" until="810" />
    <stop busStop="2536" duration="30" until="910" />
    <stop busStop="4140" duration="30" until="1010" />
    <stop busStop="4448" duration="30" until="1110" />
    <stop busStop="4452" duration="30" until="1210" />
    <stop busStop="4456" duration="30" until="1310" />
    <stop busStop="4460" duration="30" until="1410" />
    <stop busStop="4464" duration="30" until="1510" />
    <stop busStop="4336" duration="30" until="1610" />
    <stop busStop="5696" duration="30" until="1710" />
    <stop busStop="56613" duration="30" until="1810" />
    <stop busStop="56614" duration="30" until="1910" />
    <stop busStop="56650" duration="30" until="2010" />
    <stop busStop="56654" duration="30" until="2110" />
    <stop busStop="56658" duration="30" until="2210" />
    <stop busStop="559" duration="30" until="2310" />
  </flow>
  <flow id="121" line="121" color="1,1,0" begin="0" end="7200" period="100" type="bus" >
    <stop busStop="559" duration="30" until="10" />
    <stop busStop="557" duration="30" until="110" />
    <stop busStop="56650" duration="30" until="210" />
    <stop busStop="56654" duration="30" until="310" />
    <stop busStop="56658" duration="30" until="410" />
    <stop busStop="56659" duration="30" until="510" />
    <stop busStop="5699" duration="30" until="610" />
    <stop busStop="56612" duration="30" until="710" />
    <stop busStop="5698" duration="30" until="810" />
    <stop busStop="56614" duration="30" until="910" />
    <stop busStop="5641" duration="30" until="1010" />
    <stop busStop="5639" duration="30" until="1110" />
    <stop busStop="4437" duration="30" until="1210" />
    <stop busStop="4465" duration="30" until="1310" />
    <stop busStop="4461" duration="30" until="1410" />
    <stop busStop="4457" duration="30" until="1510" />
    <stop busStop="4453" duration="30" until="1610" />
    <stop busStop="4449" duration="30" until="1710" />
    <stop busStop="4445" duration="30" until="1810" />
    <stop busStop="4241" duration="30" until="1910" />
    <stop busStop="2637" duration="30" until="2010" />
    <stop busStop="2633" duration="30" until="2110" />
    <stop busStop="2529" duration="30" until="2210" />
    <stop busStop="2527" duration="30" until="2310" />
    <stop busStop="2525" duration="30" until="2410" />
    <stop busStop="2521" duration="30" until="2510" />
    <stop busStop="2519" duration="30" until="2610" />
    <stop busStop="1609" duration="30" until="2710" />
    <stop busStop="601" duration="30" until="2810" />
    <stop busStop="600" duration="30" until="2910" />
  </flow>
  <flow id="200" line="200" color="1,1,0" begin="0" end="7200" period="100" type="bus" >
    <stop busStop="600" duration="30" until="10" />
    <stop busStop="604" duration="30" until="110" />
    <stop busStop="602" duration="30" until="210" />
    <stop busStop="408" duration="30" until="310" />
    <stop busStop="2416" duration="30" until="410" />
    <stop busStop="2420" duration="30" until="510" />
    <stop busStop="4024" duration="30" until="610" />
    <stop busStop="4028" duration="30" until="710" />
    <stop busStop="4332" duration="30" until="810" />
    <stop busStop="4336" duration="30" until="910" />
    <stop busStop="5652" duration="30" until="1010" />
    <stop busStop="6013" duration="30" until="1110" />
    <stop busStop="6010" duration="30" until="1210" />
    <stop busStop="6007" duration="30" until="1310" />
    <stop busStop="6008" duration="30" until="1410" />
    <stop busStop="6011" duration="30" until="1510" />
    <stop busStop="6000" duration="30" until="1610" />
    <stop busStop="55660" duration="30" until="1710" />
    <stop busStop="55662" duration="30" until="1810" />
    <stop busStop="55664" duration="30" until="1910" />
    <stop busStop="55668" duration="30" until="2010" />
    <stop busStop="5001" duration="30" until="2110" />
    <stop busStop="368" duration="30" until="2210" />
    <stop busStop="369" duration="30" until="2310" />
    <stop busStop="405" duration="30" until="2410" />
    <stop busStop="445" duration="30" until="2510" />
    <stop busStop="372" duration="30" until="2610" />
    <stop busStop="373" duration="30" until="2710" />
    <stop busStop="374" duration="30" until="2810" />
    <stop busStop="375" duration="30" until="2910" />
    <stop busStop="376" duration="30" until="3010" />
    <stop busStop="391" duration="30" until="3110" />
    <stop busStop="392" duration="30" until="3210" />
    <stop busStop="393" duration="30" until="3310" />
    <stop busStop="394" duration="30" until="3410" />
    <stop busStop="395" duration="30" until="3510" />
  </flow>
  <flow id="201" line="201" color="1,1,0" begin="0" end="7200" period="100" type="bus" >
    <stop busStop="395" duration="30" until="10" />
    <stop busStop="396" duration="30" until="110" />
    <stop busStop="397" duration="30" until="210" />
    <stop busStop="398" duration="30" until="310" />
    <stop busStop="399" duration="30" until="410" />
    <stop busStop="407" duration="30" until="510" />
    <stop busStop="389" duration="30" until="610" />
    <stop busStop="390" duration="30" until="710" />
    <stop busStop="383" duration="30" until="810" />
    <stop busStop="384" duration="30" until="910" />
    <stop busStop="385" duration="30" until="1010" />
    <stop busStop="386" duration="30" until="1110" />
    <stop busStop="402" duration="30" until="1210" />
    <stop busStop="403" duration="30" until="1310" />
    <stop busStop="404" duration="30" until="1410" />
    <stop busStop="6015" duration="30" until="1510" />
    <stop busStop="366" duration="30" until="1610" />
    <stop busStop="55663" duration="30" until="1710" />
    <stop busStop="5001" duration="30" until="1810" />
    <stop busStop="5671" duration="30" until="1910" />
    <stop busStop="55665" duration="30" until="2010" />
    <stop busStop="5667" duration="30" until="2110" />
    <stop busStop="5663" duration="30" until="2210" />
    <stop busStop="6003" duration="30" until="2310" />
    <stop busStop="6004" duration="30" until="2410" />
    <stop busStop="6005" duration="30" until="2510" />
    <stop busStop="6002" duration="30" until="2610" />
    <stop busStop="6009" duration="30" until="2710" />
    <stop busStop="6006" duration="30" until="2810" />
    <stop busStop="5689" duration="30" until="2910" />
    <stop busStop="5641" duration="30" until="3010" />
    <stop busStop="5639" duration="30" until="3110" />
    <stop busStop="4437" duration="30" until="3210" />
    <stop busStop="4433" duration="30" until="3310" />
    <stop busStop="4129" duration="30" until="3410" />
    <stop busStop="4125" duration="30" until="3510" />
    <stop busStop="22519" duration="30" until="3610" />
    <stop busStop="2517" duration="30" until="3710" />
    <stop busStop="1505" duration="30" until="3810" />
    <stop busStop="601" duration="30" until="3910" />
    <stop busStop="600" duration="30" until="4010" />
  </flow>
  <flow id="210" line="210" color="1,1,0" begin="0" end="7200" period="100" type="bus" >
    <stop busStop="600" duration="30" until="10" />
    <stop busStop="604" duration="30" until="110" />
    <stop busStop="602" duration="30" until="210" />
    <stop busStop="408" duration="30" until="310" />
    <stop busStop="1426" duration="30" until="410" />
    <stop busStop="2430" duration="30" until="510" />
    <stop busStop="2438" duration="30" until="610" />
    <stop busStop="4046" duration="30" until="710" />
    <stop busStop="4050" duration="30" until="810" />
    <stop busStop="5602" duration="30" until="910" />
    <stop busStop="5606" duration="30" until="1010" />
    <stop busStop="5608" duration="30" until="1110" />
    <stop busStop="5610" duration="30" until="1210" />
    <stop busStop="5612" duration="30" until="1310" />
    <stop busStop="5676" duration="30" until="1410" />
    <stop busStop="5680" duration="30" until="1510" />
    <stop busStop="5684" duration="30" until="1610" />
    <stop busStop="5688" duration="30" until="1710" />
    <stop busStop="5689" duration="30" until="1810" />
    <stop busStop="5652" duration="30" until="1910" />
    <stop busStop="6008" duration="30" until="2010" />
    <stop busStop="6011" duration="30" until="2110" />
    <stop busStop="6000" duration="30" until="2210" />
    <stop busStop="55660" duration="30" until="2310" />
    <stop busStop="55662" duration="30" until="2410" />
    <stop busStop="55664" duration="30" until="2510" />
    <stop busStop="55668" duration="30" until="2610" />
    <stop busStop="5001" duration="30" until="2710" />
    <stop busStop="313" duration="30" until="2810" />
    <stop busStop="314" duration="30" until="2910" />
    <stop busStop="315" duration="30" until="3010" />
    <stop busStop="316" duration="30" until="3110" />
    <stop busStop="411" duration="30" until="3210" />
    <stop busStop="412" duration="30" until="3310" />
    <stop busStop="413" duration="30" until="3410" />
  </flow>
  <flow id="211" line="211" color="1,1,0" begin="0" end="7200" period="100" type="bus" >
    <stop busStop="413" duration="30" until="10" />
    <stop busStop="338" duration="30" until="110" />
    <stop busStop="339" duration="30" until="210" />
    <stop busStop="340" duration="30" until="310" />
    <stop busStop="341" duration="30" until="410" />
    <stop busStop="314" duration="30" until="510" />
    <stop busStop="342" duration="30" until="610" />
    <stop busStop="343" duration="30" until="710" />
    <stop busStop="6011" duration="30" until="810" />
    <stop busStop="6000" duration="30" until="910" />
    <stop busStop="366" duration="30" until="1010" />
    <stop busStop="55663" duration="30" until="1110" />
    <stop busStop="5001" duration="30" until="1210" />
    <stop busStop="5671" duration="30" until="1310" />
    <stop busStop="55665" duration="30" until="1410" />
    <stop busStop="5667" duration="30" until="1510" />
    <stop busStop="5663" duration="30" until="1610" />
    <stop busStop="6003" duration="30" until="1710" />
    <stop busStop="6004" duration="30" until="1810" />
    <stop busStop="6012" duration="30" until="1910" />
    <stop busStop="5685" duration="30" until="2010" />
    <stop busStop="55683" duration="30" until="2110" />
    <stop busStop="5681" duration="30" until="2210" />
    <stop busStop="5679" duration="30" until="2310" />
    <stop busStop="5675" duration="30" until="2410" />
    <stop busStop="5673" duration="30" until="2510" />
    <stop busStop="5607" duration="30" until="2610" />
    <stop busStop="5603" duration="30" until="2710" />
    <stop busStop="4049" duration="30" until="2810" />
    <stop busStop="4045" duration="30" until="2910" />
    <stop busStop="2437" duration="30" until="3010" />
    <stop busStop="2429" duration="30" until="3110" />
    <stop busStop="2425" duration="30" until="3210" />
    <stop busStop="1505" duration="30" until="3310" />
    <stop busStop="601" duration="30" until="3410" />
    <stop busStop="600" duration="30" until="3510" />
  </flow>
  <flow id="220" line="220" color="1,1,0" begin="0" end="7200" period="100" type="bus" >
    <stop busStop="600" duration="30" until="10" />
    <stop busStop="604" duration="30" until="110" />
    <stop busStop="602" duration="30" until="210" />
    <stop busStop="408" duration="30" until="310" />
    <stop busStop="1412" duration="30" until="410" />
    <stop busStop="1426" duration="30" until="510" />
    <stop busStop="2430" duration="30" until="610" />
    <stop busStop="2438" duration="30" until="710" />
    <stop busStop="4046" duration="30" until="810" />
    <stop busStop="4050" duration="30" until="910" />
    <stop busStop="5602" duration="30" until="1010" />
    <stop busStop="5606" duration="30" until="1110" />
    <stop busStop="5616" duration="30" until="1210" />
    <stop busStop="5618" duration="30" until="1310" />
    <stop busStop="5622" duration="30" until="1410" />
    <stop busStop="5626" duration="30" until="1510" />
    <stop busStop="5674" duration="30" until="1610" />
    <stop busStop="5678" duration="30" until="1710" />
    <stop busStop="5682" duration="30" until="1810" />
    <stop busStop="5654" duration="30" until="1910" />
    <stop busStop="5658" duration="30" until="2010" />
    <stop busStop="5600" duration="30" until="2110" />
    <stop busStop="5653" duration="30" until="2210" />
    <stop busStop="5657" duration="30" until="2310" />
    <stop busStop="5661" duration="30" until="2410" />
    <stop busStop="5665" duration="30" until="2510" />
    <stop busStop="5627" duration="30" until="2610" />
    <stop busStop="5623" duration="30" until="2710" />
    <stop busStop="5617" duration="30" until="2810" />
    <stop busStop="5615" duration="30" until="2910" />
    <stop busStop="5607" duration="30" until="3010" />
    <stop busStop="5603" duration="30" until="3110" />
    <stop busStop="4049" duration="30" until="3210" />
    <stop busStop="4045" duration="30" until="3310" />
    <stop busStop="2437" duration="30" until="3410" />
    <stop busStop="2429" duration="30" until="3510" />
    <stop busStop="2425" duration="30" until="3610" />
    <stop busStop="1513" duration="30" until="3710" />
    <stop busStop="1505" duration="30" until="3810" />
    <stop busStop="601" duration="30" until="3910" />
    <stop busStop="999" duration="30" until="4010" />
  </flow>
  <flow id="310" line="310" color="1,1,0" begin="0" end="7200" period="100" type="bus" >
    <stop busStop="600" duration="30" until="10" />
    <stop busStop="604" duration="30" until="110" />
    <stop busStop="602" duration="30" until="210" />
    <stop busStop="408" duration="30" until="310" />
    <stop busStop="1312" duration="30" until="410" />
    <stop busStop="2316" duration="30" until="510" />
    <stop busStop="2376" duration="30" until="610" />
    <stop busStop="3868" duration="30" until="710" />
    <stop busStop="3962" duration="30" until="810" />
    <stop busStop="39964" duration="30" until="910" />
    <stop busStop="5446" duration="30" until="1010" />
    <stop busStop="5448" duration="30" until="1110" />
    <stop busStop="5442" duration="30" until="1210" />
    <stop busStop="5440" duration="30" until="1310" />
    <stop busStop="5438" duration="30" until="1410" />
    <stop busStop="5436" duration="30" until="1510" />
    <stop busStop="5432" duration="30" until="1610" />
    <stop busStop="5430" duration="30" until="1710" />
    <stop busStop="5428" duration="30" until="1810" />
    <stop busStop="5426" duration="30" until="1910" />
    <stop busStop="5560" duration="30" until="2010" />
    <stop busStop="5572" duration="30" until="2110" />
    <stop busStop="5517" duration="30" until="2210" />
    <stop busStop="5515" duration="30" until="2310" />
    <stop busStop="5518" duration="30" until="2410" />
    <stop busStop="5522" duration="30" until="2510" />
    <stop busStop="5525" duration="30" until="2610" />
    <stop busStop="5530" duration="30" until="2710" />
    <stop busStop="5564" duration="30" until="2810" />
    <stop busStop="5568" duration="30" until="2910" />
    <stop busStop="5574" duration="30" until="3010" />
    <stop busStop="5576" duration="30" until="3110" />
    <stop busStop="5592" duration="30" until="3210" />
    <stop busStop="5596" duration="30" until="3310" />
    <stop busStop="5349" duration="30" until="3410" />
    <stop busStop="5345" duration="30" until="3510" />
    <stop busStop="5341" duration="30" until="3610" />
    <stop busStop="5333" duration="30" until="3710" />
    <stop busStop="5329" duration="30" until="3810" />
    <stop busStop="5321" duration="30" until="3910" />
    <stop busStop="5317" duration="30" until="4010" />
    <stop busStop="5313" duration="30" until="4110" />
    <stop busStop="5309" duration="30" until="4210" />
    <stop busStop="5305" duration="30" until="4310" />
    <stop busStop="5301" duration="30" until="4410" />
    <stop busStop="5368" duration="30" until="4510" />
    <stop busStop="5367" duration="30" until="4610" />
    <stop busStop="5366" duration="30" until="4710" />
    <stop busStop="3821" duration="30" until="4810" />
    <stop busStop="2217" duration="30" until="4910" />
    <stop busStop="1313" duration="30" until="5010" />
    <stop busStop="1505" duration="30" until="5110" />
    <stop busStop="601" duration="30" until="5210" />
    <stop busStop="999" duration="30" until="5310" />
  </flow>
  <flow id="320" line="320" color="1,1,0" begin="0" end="7200" period="100" type="bus" >
    <stop busStop="600" duration="30" until="10" />
    <stop busStop="604" duration="30" until="110" />
    <stop busStop="602" duration="30" until="210" />
    <stop busStop="408" duration="30" until="310" />
    <stop busStop="1312" duration="30" until="410" />
    <stop busStop="2316" duration="30" until="510" />
    <stop busStop="2376" duration="30" until="610" />
    <stop busStop="3868" duration="30" until="710" />
    <stop busStop="5448" duration="30" until="810" />
    <stop busStop="5442" duration="30" until="910" />
    <stop busStop="5440" duration="30" until="1010" />
    <stop busStop="5438" duration="30" until="1110" />
    <stop busStop="5436" duration="30" until="1210" />
    <stop busStop="5432" duration="30" until="1310" />
    <stop busStop="5430" duration="30" until="1410" />
    <stop busStop="5428" duration="30" until="1510" />
    <stop busStop="5571" duration="30" until="1610" />
    <stop busStop="5502" duration="30" until="1710" />
    <stop busStop="5506" duration="30" until="1810" />
    <stop busStop="5510" duration="30" until="1910" />
    <stop busStop="5532" duration="30" until="2010" />
    <stop busStop="5534" duration="30" until="2110" />
    <stop busStop="330" duration="30" until="2210" />
    <stop busStop="331" duration="30" until="2310" />
    <stop busStop="332" duration="30" until="2410" />
    <stop busStop="333" duration="30" until="2510" />
    <stop busStop="334" duration="30" until="2610" />
    <stop busStop="335" duration="30" until="2710" />
    <stop busStop="414" duration="30" until="2810" />
    <stop busStop="363" duration="30" until="2910" />
    <stop busStop="409" duration="30" until="3010" />
    <stop busStop="349" duration="30" until="3110" />
    <stop busStop="365" duration="30" until="3210" />
    <stop busStop="5664" duration="30" until="3310" />
    <stop busStop="5668" duration="30" until="3410" />
    <stop busStop="55664" duration="30" until="3510" />
    <stop busStop="55668" duration="30" until="3610" />
    <stop busStop="5001" duration="30" until="3710" />
    <stop busStop="5671" duration="30" until="3810" />
    <stop busStop="55665" duration="30" until="3910" />
    <stop busStop="5667" duration="30" until="4010" />
    <stop busStop="5663" duration="30" until="4110" />
    <stop busStop="6011" duration="30" until="4210" />
    <stop busStop="6000" duration="30" until="4310" />
    <stop busStop="309" duration="30" until="4410" />
    <stop busStop="301" duration="30" until="4510" />
    <stop busStop="302" duration="30" until="4610" />
    <stop busStop="303" duration="30" until="4710" />
    <stop busStop="300" duration="30" until="4810" />
  </flow>
  <flow id="321" line="321" color="1,1,0" begin="0" end="7200" period="100" type="bus" >
    <stop busStop="300" duration="30" until="10" />
    <stop busStop="8303" duration="30" until="110" />
    <stop busStop="8302" duration="30" until="210" />
    <stop busStop="8301" duration="30" until="310" />
    <stop busStop="304" duration="30" until="410" />
    <stop busStop="6014" duration="30" until="510" />
    <stop busStop="5664" duration="30" until="610" />
    <stop busStop="5668" duration="30" until="710" />
    <stop busStop="55659" duration="30" until="810" />
    <stop busStop="55661" duration="30" until="910" />
    <stop busStop="366" duration="30" until="1010" />
    <stop busStop="55663" duration="30" until="1110" />
    <stop busStop="5001" duration="30" until="1210" />
    <stop busStop="347" duration="30" until="1310" />
    <stop busStop="348" duration="30" until="1410" />
    <stop busStop="351" duration="30" until="1510" />
    <stop busStop="352" duration="30" until="1610" />
    <stop busStop="353" duration="30" until="1710" />
    <stop busStop="319" duration="30" until="1810" />
    <stop busStop="323" duration="30" until="1910" />
    <stop busStop="324" duration="30" until="2010" />
    <stop busStop="325" duration="30" until="2110" />
    <stop busStop="1800" duration="30" until="2210" />
    <stop busStop="441" duration="30" until="2310" />
    <stop busStop="327" duration="30" until="2410" />
    <stop busStop="55641" duration="30" until="2510" />
    <stop busStop="90009" duration="30" until="2610" />
    <stop busStop="5509" duration="30" until="2710" />
    <stop busStop="5505" duration="30" until="2810" />
    <stop busStop="5501" duration="30" until="2910" />
    <stop busStop="5570" duration="30" until="3010" />
    <stop busStop="5529" duration="30" until="3110" />
    <stop busStop="5531" duration="30" until="3210" />
    <stop busStop="5533" duration="30" until="3310" />
    <stop busStop="5537" duration="30" until="3410" />
    <stop busStop="5539" duration="30" until="3510" />
    <stop busStop="5541" duration="30" until="3610" />
    <stop busStop="5543" duration="30" until="3710" />
    <stop busStop="5549" duration="30" until="3810" />
    <stop busStop="3967" duration="30" until="3910" />
    <stop busStop="3969" duration="30" until="4010" />
    <stop busStop="2373" duration="30" until="4110" />
    <stop busStop="2379" duration="30" until="4210" />
    <stop busStop="2381" duration="30" until="4310" />
    <stop busStop="1413" duration="30" until="4410" />
    <stop busStop="1505" duration="30" until="4510" />
    <stop busStop="601" duration="30" until="4610" />
    <stop busStop="600" duration="30" until="4710" />
  </flow>
  <flow id="330" line="330" color="1,1,0" begin="0" end="7200" period="100" type="bus" >
    <stop busStop="6000" duration="30" until="10" />
    <stop busStop="55660" duration="30" until="110" />
    <stop busStop="55662" duration="30" until="210" />
    <stop busStop="55664" duration="30" until="310" />
    <stop busStop="55668" duration="30" until="410" />
    <stop busStop="5001" duration="30" until="510" />
    <stop busStop="368" duration="30" until="610" />
    <stop busStop="369" duration="30" until="710" />
    <stop busStop="370" duration="30" until="810" />
    <stop busStop="371" duration="30" until="910" />
    <stop busStop="372" duration="30" until="1010" />
    <stop busStop="373" duration="30" until="1110" />
    <stop busStop="374" duration="30" until="1210" />
    <stop busStop="415" duration="30" until="1310" />
    <stop busStop="416" duration="30" until="1410" />
    <stop busStop="377" duration="30" until="1510" />
    <stop busStop="378" duration="30" until="1610" />
    <stop busStop="379" duration="30" until="1710" />
    <stop busStop="318" duration="30" until="1810" />
    <stop busStop="319" duration="30" until="1910" />
    <stop busStop="320" duration="30" until="2010" />
    <stop busStop="5704" duration="30" until="2110" />
    <stop busStop="1800" duration="30" until="2210" />
    <stop busStop="441" duration="30" until="2310" />
    <stop busStop="327" duration="30" until="2410" />
    <stop busStop="55641" duration="30" until="2510" />
    <stop busStop="90009" duration="30" until="2610" />
    <stop busStop="5629" duration="30" until="2710" />
    <stop busStop="5625" duration="30" until="2810" />
    <stop busStop="5621" duration="30" until="2910" />
    <stop busStop="55617" duration="30" until="3010" />
    <stop busStop="55615" duration="30" until="3110" />
    <stop busStop="5613" duration="30" until="3210" />
    <stop busStop="5609" duration="30" until="3310" />
    <stop busStop="5605" duration="30" until="3410" />
    <stop busStop="4029" duration="30" until="3510" />
    <stop busStop="4025" duration="30" until="3610" />
    <stop busStop="2421" duration="30" until="3710" />
    <stop busStop="1413" duration="30" until="3810" />
    <stop busStop="1505" duration="30" until="3910" />
    <stop busStop="601" duration="30" until="4010" />
    <stop busStop="600" duration="30" until="4110" />
  </flow>
  <flow id="331" line="331" color="1,1,0" begin="0" end="7200" period="100" type="bus">
  <stop busStop="600" duration="30" until="10" />
  <stop busStop="604" duration="30" until="110" />
  <stop busStop="602" duration="30" until="210" />
  <stop busStop="408" duration="30" until="310" />
  <stop busStop="1312" duration="30" until="410" />
  <stop busStop="2316" duration="30" until="510" />
  <stop busStop="3928" duration="30" until="610" />
  <stop busStop="3932" duration="30" until="710" />
  <stop busStop="5500" duration="30" until="810" />
  <stop busStop="5504" duration="30" until="910" />
  <stop busStop="5508" duration="30" until="1010" />
  <stop busStop="55510" duration="30" until="1110" />
  <stop busStop="5516" duration="30" until="1210" />
  <stop busStop="5520" duration="30" until="1310" />
  <stop busStop="5524" duration="30" until="1410" />
  <stop busStop="5526" duration="30" until="1510" />
  <stop busStop="5528" duration="30" until="1610" />
  <stop busStop="5532" duration="30" until="1710" />
  <stop busStop="5534" duration="30" until="1810" />
  <stop busStop="330" duration="30" until="1910" />
  <stop busStop="406" duration="30" until="2010" />
  <stop busStop="337" duration="30" until="2110" />
  <stop busStop="380" duration="30" until="2210" />
  <stop busStop="381" duration="30" until="2310" />
  <stop busStop="382" duration="30" until="2410" />
  <stop busStop="383" duration="30" until="2510" />
  <stop busStop="384" duration="30" until="2610" />
  <stop busStop="385" duration="30" until="2710" />
  <stop busStop="386" duration="30" until="2810" />
  <stop busStop="387" duration="30" until="2910" />
  <stop busStop="388" duration="30" until="3010" />
  <stop busStop="6015" duration="30" until="3110" />
  <stop busStop="366" duration="30" until="3210" />
  <stop busStop="55663" duration="30" until="3310" />